external_data/tamu_texas_td/distribution_sample/p1uhs0_1247--p1udt3807/Lines.dss
New Line.l(r:p1udt63lv-p1ulv733) Units=km Length=0.0128122 bus1=p1udt63lv.1.2 bus2=p1ulv733.1.2 switch=n enabled=y phases=2 Linecode=1P_OH_AL_2/0_Rucina_2

New Line.l(r:p1udt63lv-p1ulv9181) Units=km Length=0.019412 bus1=p1udt63lv.1.2 bus2=p1ulv9181.1.2 switch=n enabled=y phases=2 Linecode=1P_OH_AL_2/0_Rucina_2

New Line.l(r:p1udm225-p1ulv65) Units=km Length=0.013517700000000002 bus1=p1udm225.1.2 bus2=p1ulv65.1.2 switch=n enabled=y phases=2 Linecode=1P_OH_AL_2/0_Rucina_2

New Line.l(r:p1udm225-p1ulv5456) Units=km Length=0.0196787 bus1=p1udm225.1.2 bus2=p1ulv5456.1.2 switch=n enabled=y phases=2 Linecode=1P_OH_AL_2/0_Rucina_2

New Line.l(r:p1udm225-p1udt63lv) Units=km Length=0.0199299 bus1=p1udt63lv.1.2 bus2=p1udm225.1.2 switch=n enabled=y phases=2 Linecode=1P_OH_AL_2/0_Rucina_2

New Line.l(r:p1udm228-p1ulv5584) Units=km Length=0.0115547 bus1=p1udm228.1.2 bus2=p1ulv5584.1.2 switch=n enabled=y phases=2 Linecode=1P_OH_AL_2/0_Rucina_2

New Line.l(r:p1udm228-p1ulv6025) Units=km Length=0.0126059 bus1=p1udm228.1.2 bus2=p1ulv6025.1.2 switch=n enabled=y phases=2 Linecode=1P_OH_AL_2/0_Rucina_2

New Line.l(r:p1udm228-p1udt63lv) Units=km Length=0.0199227 bus1=p1udt63lv.1.2 bus2=p1udm228.1.2 switch=n enabled=y phases=2 Linecode=1P_OH_AL_2/0_Rucina_2

New Line.l(r:p1udt65lv-p1ulv5782) Units=km Length=0.0156924 bus1=p1udt65lv.1.2 bus2=p1ulv5782.1.2 switch=n enabled=y phases=2 Linecode=1P_UG_AL_2/0_Converse_2

New Line.l(r:p1udt65lv-p1ulv9555) Units=km Length=0.014534500000000002 bus1=p1udt65lv.1.2 bus2=p1ulv9555.1.2 switch=n enabled=y phases=2 Linecode=1P_UG_AL_1/0_Brenau_2

New Line.l(r:p1udm232-p1ulv67) Units=km Length=0.014438800000000002 bus1=p1udm232.1.2 bus2=p1ulv67.1.2 switch=n enabled=y phases=2 Linecode=1P_UG_AL_2/0_Converse_2

New Line.l(r:p1udm232-p1ulv8518) Units=km Length=0.0171469 bus1=p1udm232.1.2 bus2=p1ulv8518.1.2 switch=n enabled=y phases=2 Linecode=1P_UG_AL_1/0_Brenau_2

New Line.l(r:p1udm232-p1udt65lv) Units=km Length=0.0197229 bus1=p1udt65lv.1.2 bus2=p1udm232.1.2 switch=n enabled=y phases=2 Linecode=1P_UG_AL_4/0_Sweetbriar_2

New Line.l(r:p1udm237-p1ulv10366) Units=km Length=0.014945100000000001 bus1=p1udm237.1.2 bus2=p1ulv10366.1.2 switch=n enabled=y phases=2 Linecode=1P_UG_AL_1/0_Brenau_2

New Line.l(r:p1udm233-p1ulv68) Units=km Length=0.015159 bus1=p1udm233.1.2 bus2=p1ulv68.1.2 switch=n enabled=y phases=2 Linecode=1P_UG_AL_1/0_Brenau_2

New Line.l(r:p1udm233-p1udm237) Units=km Length=0.00986121 bus1=p1udm237.1.2 bus2=p1udm233.1.2 switch=n enabled=y phases=2 Linecode=1P_UG_AL_1/0_Brenau_2

New Line.l(r:p1udm237-p1udt65lv) Units=km Length=0.0197329 bus1=p1udt65lv.1.2 bus2=p1udm237.1.2 switch=n enabled=y phases=2 Linecode=1P_UG_AL_2/0_Converse_2

New Line.l(r:p1udt72lv-p1ulv4660) Units=km Length=0.0408494 bus1=p1udt72lv.1.2 bus2=p1ulv4660.1.2 switch=n enabled=y phases=2 Linecode=1P_UG_AL_1/0_Brenau_2

New Line.l(r:p1udt72lv-p1ulv7898) Units=km Length=0.00816838 bus1=p1udt72lv.1.2 bus2=p1ulv7898.1.2 switch=n enabled=y phases=2 Linecode=1P_UG_AL_1/0_Brenau_2

New Line.l(r:p1udm254-p1ulv75) Units=km Length=0.008944 bus1=p1udm254.1.2 bus2=p1ulv75.1.2 switch=n enabled=y phases=2 Linecode=1P_UG_AL_1/0_Brenau_2

New Line.l(r:p1udm255-p1ulv4069) Units=km Length=0.0127525 bus1=p1udm255.1.2 bus2=p1ulv4069.1.2 switch=n enabled=y phases=2 Linecode=1P_UG_AL_1/0_Brenau_2

New Line.l(r:p1udm254-p1udm255) Units=km Length=0.0195356 bus1=p1udm254.1.2 bus2=p1udm255.1.2 switch=n enabled=y phases=2 Linecode=1P_UG_AL_1/0_Brenau_2

New Line.l(r:p1udm254-p1udt72lv) Units=km Length=0.0201471 bus1=p1udt72lv.1.2 bus2=p1udm254.1.2 switch=n enabled=y phases=2 Linecode=1P_UG_AL_2/0_Converse_2

New Line.l(r:p1udt73lv-p1ulv76) Units=km Length=0.0234135 bus1=p1udt73lv.1.2 bus2=p1ulv76.1.2 switch=n enabled=y phases=2 Linecode=1P_OH_AL_2/0_Rucina_2

New Line.l(r:p1udt73lv-p1ulv1961) Units=km Length=0.024587800000000003 bus1=p1udt73lv.1.2 bus2=p1ulv1961.1.2 switch=n enabled=y phases=2 Linecode=1P_OH_AL_2/0_Rucina_2

New Line.l(r:p1udt73lv-p1ulv5344) Units=km Length=0.029868500000000003 bus1=p1udt73lv.1.2 bus2=p1ulv5344.1.2 switch=n enabled=y phases=2 Linecode=1P_OH_AL_4/0_Zuzara_2

New Line.l(r:p1udt73lv-p1ulv6800) Units=km Length=0.0276748 bus1=p1udt73lv.1.2 bus2=p1ulv6800.1.2 switch=n enabled=y phases=2 Linecode=1P_OH_AL_4/0_Zuzara_2

New Line.l(r:p1udt73lv-p1ulv11100) Units=km Length=0.0256119 bus1=p1udt73lv.1.2 bus2=p1ulv11100.1.2 switch=n enabled=y phases=2 Linecode=1P_OH_AL_2/0_Rucina_2

New Line.l(r:p1udt74lv-p1ulv2965) Units=km Length=0.0126512 bus1=p1udt74lv.1.2 bus2=p1ulv2965.1.2 switch=n enabled=y phases=2 Linecode=1P_OH_AL_2/0_Rucina_2

New Line.l(r:p1udt74lv-p1ulv10989) Units=km Length=0.021753800000000004 bus1=p1udt74lv.1.2 bus2=p1ulv10989.1.2 switch=n enabled=y phases=2 Linecode=1P_OH_AL_2/0_Rucina_2

New Line.l(r:p1udm263-p1ulv77) Units=km Length=0.0207042 bus1=p1udm263.1.2 bus2=p1ulv77.1.2 switch=n enabled=y phases=2 Linecode=1P_OH_AL_2/0_Rucina_2

New Line.l(r:p1udm264-p1ulv1206) Units=km Length=0.0141918 bus1=p1udm264.1.2 bus2=p1ulv1206.1.2 switch=n enabled=y phases=2 Linecode=1P_OH_AL_2/0_Rucina_2

New Line.l(r:p1udm263-p1udm264) Units=km Length=0.0333469 bus1=p1udm263.1.2 bus2=p1udm264.1.2 switch=n enabled=y phases=2 Linecode=1P_OH_AL_4/0_Zuzara_2

New Line.l(r:p1udm263-p1udt74lv) Units=km Length=0.0182222 bus1=p1udt74lv.1.2 bus2=p1udm263.1.2 switch=n enabled=y phases=2 Linecode=1P_OH_AL_2/0_Rucina_2

New Line.l(r:p1udm266-p1ulv3103) Units=km Length=0.019675 bus1=p1udm266.1.2 bus2=p1ulv3103.1.2 switch=n enabled=y phases=2 Linecode=1P_OH_AL_2/0_Rucina_2

New Line.l(r:p1udm266-p1ulv4420) Units=km Length=0.0103663 bus1=p1udm266.1.2 bus2=p1ulv4420.1.2 switch=n enabled=y phases=2 Linecode=1P_OH_AL_2/0_Rucina_2

New Line.l(r:p1udm268-p1ulv4912) Units=km Length=0.0209833 bus1=p1udm268.1.2 bus2=p1ulv4912.1.2 switch=n enabled=y phases=2 Linecode=1P_OH_AL_2/0_Rucina_2

New Line.l(r:p1udm268-p1ulv7900) Units=km Length=0.0123019 bus1=p1udm268.1.2 bus2=p1ulv7900.1.2 switch=n enabled=y phases=2 Linecode=1P_OH_AL_2/0_Rucina_2

New Line.l(r:p1udm266-p1udm268) Units=km Length=0.018229300000000004 bus1=p1udm266.1.2 bus2=p1udm268.1.2 switch=n enabled=y phases=2 Linecode=1P_OH_AL_2/0_Rucina_2

New Line.l(r:p1udm266-p1udt74lv) Units=km Length=0.018215100000000005 bus1=p1udt74lv.1.2 bus2=p1udm266.1.2 switch=n enabled=y phases=2 Linecode=1P_OH_AL_2/0_Rucina_2

New Line.l(r:p1udt75lv-p1ulv78) Units=km Length=0.012216200000000002 bus1=p1udt75lv.1.2 bus2=p1ulv78.1.2 switch=n enabled=y phases=2 Linecode=1P_OH_AL_2/0_Rucina_2

New Line.l(r:p1udm273-p1ulv7167) Units=km Length=0.014272600000000002 bus1=p1udm273.1.2 bus2=p1ulv7167.1.2 switch=n enabled=y phases=2 Linecode=1P_OH_AL_2/0_Rucina_2

New Line.l(r:p1udm273-p1udt75lv) Units=km Length=0.058710000000000005 bus1=p1udt75lv.1.2 bus2=p1udm273.1.2 switch=n enabled=y phases=2 Linecode=1P_OH_AL_4/0_Zuzara_2

New Line.l(r:p1udm274-p1ulv9193) Units=km Length=0.0116884 bus1=p1udm274.1.2 bus2=p1ulv9193.1.2 switch=n enabled=y phases=2 Linecode=1P_OH_AL_2/0_Rucina_2

New Line.l(r:p1udm272-p1ulv1848) Units=km Length=0.009978000000000002 bus1=p1udm272.1.2 bus2=p1ulv1848.1.2 switch=n enabled=y phases=2 Linecode=1P_OH_AL_2/0_Rucina_2

New Line.l(r:p1udm272-p1udm274) Units=km Length=0.01957 bus1=p1udm274.1.2 bus2=p1udm272.1.2 switch=n enabled=y phases=2 Linecode=1P_OH_AL_2/0_Rucina_2

New Line.l(r:p1udm274-p1udt75lv) Units=km Length=0.01957 bus1=p1udt75lv.1.2 bus2=p1udm274.1.2 switch=n enabled=y phases=2 Linecode=1P_OH_AL_2/0_Rucina_2

New Line.l(r:p1udt76lv-p1ulv7277) Units=km Length=0.00663944 bus1=p1udt76lv.1.2 bus2=p1ulv7277.1.2 switch=n enabled=y phases=2 Linecode=1P_OH_AL_2/0_Rucina_2

New Line.l(r:p1udt76lv-p1ulv8926) Units=km Length=0.0253841 bus1=p1udt76lv.1.2 bus2=p1ulv8926.1.2 switch=n enabled=y phases=2 Linecode=1P_OH_AL_2/0_Rucina_2

New Line.l(r:p1udm275-p1ulv79) Units=km Length=0.00990387 bus1=p1udm275.1.2 bus2=p1ulv79.1.2 switch=n enabled=y phases=2 Linecode=1P_OH_AL_2/0_Rucina_2

New Line.l(r:p1udm275-p1ulv10765) Units=km Length=0.0251564 bus1=p1udm275.1.2 bus2=p1ulv10765.1.2 switch=n enabled=y phases=2 Linecode=1P_OH_AL_2/0_Rucina_2

New Line.l(r:p1udm275-p1udt76lv) Units=km Length=0.019447 bus1=p1udt76lv.1.2 bus2=p1udm275.1.2 switch=n enabled=y phases=2 Linecode=1P_OH_AL_2/0_Rucina_2

New Line.l(r:p1udt77lv-p1ulv1965) Units=km Length=0.0286533 bus1=p1udt77lv.1.2 bus2=p1ulv1965.1.2 switch=n enabled=y phases=2 Linecode=1P_OH_AL_4/0_Zuzara_2

New Line.l(r:p1udt77lv-p1ulv2840) Units=km Length=0.00326021 bus1=p1udt77lv.1.2 bus2=p1ulv2840.1.2 switch=n enabled=y phases=2 Linecode=1P_OH_AL_4_Periwinkle_2

New Line.l(r:p1udt77lv-p1ulv9928) Units=km Length=0.0189559 bus1=p1udt77lv.1.2 bus2=p1ulv9928.1.2 switch=n enabled=y phases=2 Linecode=1P_OH_AL_2/0_Rucina_2

New Line.l(r:p1udm279-p1ulv80) Units=km Length=0.00920841 bus1=p1udm279.1.2 bus2=p1ulv80.1.2 switch=n enabled=y phases=2 Linecode=1P_OH_AL_2/0_Rucina_2

New Line.l(r:p1udm279-p1ulv3591) Units=km Length=0.0104703 bus1=p1udm279.1.2 bus2=p1ulv3591.1.2 switch=n enabled=y phases=2 Linecode=1P_OH_AL_2/0_Rucina_2

New Line.l(r:p1udm279-p1udt77lv) Units=km Length=0.0174841 bus1=p1udt77lv.1.2 bus2=p1udm279.1.2 switch=n enabled=y phases=2 Linecode=1P_OH_AL_2/0_Rucina_2

New Line.l(r:p1udm283-p1ulv7902) Units=km Length=0.00685396 bus1=p1udm283.1.2 bus2=p1ulv7902.1.2 switch=n enabled=y phases=2 Linecode=1P_OH_AL_2/0_Rucina_2

New Line.l(r:p1udm283-p1udt77lv) Units=km Length=0.0302109 bus1=p1udt77lv.1.2 bus2=p1udm283.1.2 switch=n enabled=y phases=2 Linecode=1P_OH_AL_4/0_Zuzara_2

New Line.l(r:p1udm285-p1ulv81) Units=km Length=0.00801342 bus1=p1udm285.1.2 bus2=p1ulv81.1.2 switch=n enabled=y phases=2 Linecode=1P_UG_AL_2/0_Converse_2

New Line.l(r:p1udm288-p1ulv4914) Units=km Length=0.00768058 bus1=p1udm288.1.2 bus2=p1ulv4914.1.2 switch=n enabled=y phases=2 Linecode=1P_UG_AL_1/0_Brenau_2

New Line.l(r:p1udm285-p1udm288) Units=km Length=0.0196464 bus1=p1udm285.1.2 bus2=p1udm288.1.2 switch=n enabled=y phases=2 Linecode=1P_UG_AL_1/0_Brenau_2

New Line.l(r:p1udm285-p1udt78lv) Units=km Length=0.00991315 bus1=p1udt78lv.1.2 bus2=p1udm285.1.2 switch=n enabled=y phases=2 Linecode=1P_UG_AL_4/0_Sweetbriar_2

New Line.l(r:p1udm286-p1ulv2614) Units=km Length=0.00697266 bus1=p1udm286.1.2 bus2=p1ulv2614.1.2 switch=n enabled=y phases=2 Linecode=1P_UG_AL_1/0_Brenau_2

New Line.l(r:p1udm287-p1ulv4784) Units=km Length=0.0083892 bus1=p1udm287.1.2 bus2=p1ulv4784.1.2 switch=n enabled=y phases=2 Linecode=1P_UG_AL_1/0_Brenau_2

New Line.l(r:p1udm286-p1udm287) Units=km Length=0.0198163 bus1=p1udm286.1.2 bus2=p1udm287.1.2 switch=n enabled=y phases=2 Linecode=1P_UG_AL_1/0_Brenau_2

New Line.l(r:p1udm286-p1udt78lv) Units=km Length=0.00990291 bus1=p1udt78lv.1.2 bus2=p1udm286.1.2 switch=n enabled=y phases=2 Linecode=1P_UG_AL_2/0_Converse_2

New Line.l(r:p1udt79lv-p1ulv1970) Units=km Length=0.00977591 bus1=p1udt79lv.1.2 bus2=p1ulv1970.1.2 switch=n enabled=y phases=2 Linecode=1P_UG_AL_1/0_Brenau_2

New Line.l(r:p1udm292-p1ulv3109) Units=km Length=0.00760028 bus1=p1udm292.1.2 bus2=p1ulv3109.1.2 switch=n enabled=y phases=2 Linecode=1P_UG_AL_1/0_Brenau_2

New Line.l(r:p1udm294-p1ulv4077) Units=km Length=0.0352149 bus1=p1udm294.1.2 bus2=p1ulv4077.1.2 switch=n enabled=y phases=2 Linecode=1P_UG_AL_1/0_Brenau_2

New Line.l(r:p1udm294-p1ulv6532) Units=km Length=0.0017098800000000002 bus1=p1udm294.1.2 bus2=p1ulv6532.1.2 switch=n enabled=y phases=2 Linecode=1P_UG_AL_1/0_Brenau_2

New Line.l(r:p1udm292-p1udm294) Units=km Length=0.0130972 bus1=p1udm292.1.2 bus2=p1udm294.1.2 switch=n enabled=y phases=2 Linecode=1P_UG_AL_1/0_Brenau_2

New Line.l(r:p1udm292-p1udt79lv) Units=km Length=0.0219102 bus1=p1udt79lv.1.2 bus2=p1udm292.1.2 switch=n enabled=y phases=2 Linecode=1P_UG_AL_4/0_Sweetbriar_2

New Line.l(r:p1udm293-p1ulv3825) Units=km Length=0.0152328 bus1=p1udm293.1.2 bus2=p1ulv3825.1.2 switch=n enabled=y phases=2 Linecode=1P_UG_AL_1/0_Brenau_2

New Line.l(r:p1udm289-p1ulv82) Units=km Length=0.010573300000000002 bus1=p1udm289.1.2 bus2=p1ulv82.1.2 switch=n enabled=y phases=2 Linecode=1P_UG_AL_1/0_Brenau_2

New Line.l(r:p1udm290-p1ulv1091) Units=km Length=0.0106261 bus1=p1udm290.1.2 bus2=p1ulv1091.1.2 switch=n enabled=y phases=2 Linecode=1P_UG_AL_1/0_Brenau_2

New Line.l(r:p1udm289-p1udm290) Units=km Length=0.0199516 bus1=p1udm289.1.2 bus2=p1udm290.1.2 switch=n enabled=y phases=2 Linecode=1P_UG_AL_1/0_Brenau_2

New Line.l(r:p1udm289-p1udm293) Units=km Length=0.00997072 bus1=p1udm293.1.2 bus2=p1udm289.1.2 switch=n enabled=y phases=2 Linecode=1P_UG_AL_2/0_Converse_2

New Line.l(r:p1udm293-p1udt79lv) Units=km Length=0.00997072 bus1=p1udt79lv.1.2 bus2=p1udm293.1.2 switch=n enabled=y phases=2 Linecode=1P_UG_AL_4/0_Sweetbriar_2

New Line.l(r:p1udm296-p1ulv8929) Units=km Length=0.0135893 bus1=p1udm296.1.2 bus2=p1ulv8929.1.2 switch=n enabled=y phases=2 Linecode=1P_UG_AL_1/0_Brenau_2

New Line.l(r:p1udm296-p1udt79lv) Units=km Length=0.0209887 bus1=p1udt79lv.1.2 bus2=p1udm296.1.2 switch=n enabled=y phases=2 Linecode=1P_UG_AL_1/0_Brenau_2

New Line.l(r:p1udt80lv-p1ulv3464) Units=km Length=0.018121300000000003 bus1=p1udt80lv.1.2 bus2=p1ulv3464.1.2 switch=n enabled=y phases=2 Linecode=1P_UG_AL_1/0_Brenau_2

New Line.l(r:p1udm297-p1ulv83) Units=km Length=0.0195646 bus1=p1udm297.1.2 bus2=p1ulv83.1.2 switch=n enabled=y phases=2 Linecode=1P_UG_AL_1/0_Brenau_2

New Line.l(r:p1udm301-p1ulv9200) Units=km Length=0.015515300000000001 bus1=p1udm301.1.2 bus2=p1ulv9200.1.2 switch=n enabled=y phases=2 Linecode=1P_UG_AL_1/0_Brenau_2

New Line.l(r:p1udm297-p1udm301) Units=km Length=0.00946675 bus1=p1udm297.1.2 bus2=p1udm301.1.2 switch=n enabled=y phases=2 Linecode=1P_UG_AL_1/0_Brenau_2

New Line.l(r:p1udm297-p1udt80lv) Units=km Length=0.00947654 bus1=p1udt80lv.1.2 bus2=p1udm297.1.2 switch=n enabled=y phases=2 Linecode=1P_UG_AL_2/0_Converse_2

New Line.l(r:p1udm300-p1ulv8931) Units=km Length=0.0199251 bus1=p1udm300.1.2 bus2=p1ulv8931.1.2 switch=n enabled=y phases=2 Linecode=1P_UG_AL_1/0_Brenau_2

New Line.l(r:p1udm299-p1ulv7053) Units=km Length=0.0162526 bus1=p1udm299.1.2 bus2=p1ulv7053.1.2 switch=n enabled=y phases=2 Linecode=1P_UG_AL_1/0_Brenau_2

New Line.l(r:p1udm299-p1udm300) Units=km Length=0.00946675 bus1=p1udm300.1.2 bus2=p1udm299.1.2 switch=n enabled=y phases=2 Linecode=1P_UG_AL_1/0_Brenau_2

New Line.l(r:p1udm300-p1udt80lv) Units=km Length=0.0189413 bus1=p1udt80lv.1.2 bus2=p1udm300.1.2 switch=n enabled=y phases=2 Linecode=1P_UG_AL_2/0_Converse_2

New Line.l(r:p1udt81lv-p1ulv4429) Units=km Length=0.0157641 bus1=p1udt81lv.1.2 bus2=p1ulv4429.1.2 switch=n enabled=y phases=2 Linecode=1P_OH_AL_2/0_Rucina_2

New Line.l(r:p1udm302-p1ulv84) Units=km Length=0.0101685 bus1=p1udm302.1.2 bus2=p1ulv84.1.2 switch=n enabled=y phases=2 Linecode=1P_OH_AL_2/0_Rucina_2

New Line.l(r:p1udm303-p1ulv1094) Units=km Length=0.0152111 bus1=p1udm303.1.2 bus2=p1ulv1094.1.2 switch=n enabled=y phases=2 Linecode=1P_OH_AL_2/0_Rucina_2

New Line.l(r:p1udm302-p1udm303) Units=km Length=0.0992743 bus1=p1udm302.1.2 bus2=p1udm303.1.2 switch=n enabled=y phases=2 Linecode=1P_OH_AL_4/0_Zuzara_2

New Line.l(r:p1udm302-p1udt81lv) Units=km Length=0.0185834 bus1=p1udt81lv.1.2 bus2=p1udm302.1.2 switch=n enabled=y phases=2 Linecode=1P_OH_AL_2/0_Rucina_2

New Line.l(r:p1udt98lv-p1ulv3457) Units=km Length=0.0142732 bus1=p1udt98lv.1.2 bus2=p1ulv3457.1.2 switch=n enabled=y phases=2 Linecode=1P_OH_AL_2/0_Rucina_2

New Line.l(r:p1udm371-p1ulv101) Units=km Length=0.0169855 bus1=p1udm371.1.2 bus2=p1ulv101.1.2 switch=n enabled=y phases=2 Linecode=1P_OH_AL_2/0_Rucina_2

New Line.l(r:p1udm372-p1ulv2372) Units=km Length=0.015606700000000001 bus1=p1udm372.1.2 bus2=p1ulv2372.1.2 switch=n enabled=y phases=2 Linecode=1P_OH_AL_2/0_Rucina_2

New Line.l(r:p1udm372-p1ulv10145) Units=km Length=0.0177171 bus1=p1udm372.1.2 bus2=p1ulv10145.1.2 switch=n enabled=y phases=2 Linecode=1P_OH_AL_2/0_Rucina_2

New Line.l(r:p1udm371-p1udm372) Units=km Length=0.0180044 bus1=p1udm371.1.2 bus2=p1udm372.1.2 switch=n enabled=y phases=2 Linecode=1P_OH_AL_2/0_Rucina_2

New Line.l(r:p1udm371-p1udt98lv) Units=km Length=0.018004800000000005 bus1=p1udt98lv.1.2 bus2=p1udm371.1.2 switch=n enabled=y phases=2 Linecode=1P_OH_AL_2/0_Rucina_2_1

New Line.l(r:p1udm374-p1ulv7273) Units=km Length=0.0122739 bus1=p1udm374.1.2 bus2=p1ulv7273.1.2 switch=n enabled=y phases=2 Linecode=1P_OH_AL_2/0_Rucina_2

New Line.l(r:p1udm374-p1ulv10488) Units=km Length=0.0163502 bus1=p1udm374.1.2 bus2=p1ulv10488.1.2 switch=n enabled=y phases=2 Linecode=1P_OH_AL_2/0_Rucina_2

New Line.l(r:p1udm374-p1udt98lv) Units=km Length=0.0180044 bus1=p1udt98lv.1.2 bus2=p1udm374.1.2 switch=n enabled=y phases=2 Linecode=1P_OH_AL_2/0_Rucina_2

New Line.l(r:p1udm387-p1ulv104) Units=km Length=0.014858400000000003 bus1=p1udm387.1.2 bus2=p1ulv104.1.2 switch=n enabled=y phases=2 Linecode=1P_OH_AL_2/0_Rucina_2

New Line.l(r:p1udm387-p1ulv2495) Units=km Length=0.0300063 bus1=p1udm387.1.2 bus2=p1ulv2495.1.2 switch=n enabled=y phases=2 Linecode=1P_OH_AL_4/0_Zuzara_2

New Line.l(r:p1udm387-p1ulv6289) Units=km Length=0.020152 bus1=p1udm387.1.2 bus2=p1ulv6289.1.2 switch=n enabled=y phases=2 Linecode=1P_OH_AL_2/0_Rucina_2

New Line.l(r:p1udm390-p1ulv2866) Units=km Length=0.0295856 bus1=p1udm390.1.2 bus2=p1ulv2866.1.2 switch=n enabled=y phases=2 Linecode=1P_OH_AL_4/0_Zuzara_2

New Line.l(r:p1udm387-p1udm390) Units=km Length=0.0155003 bus1=p1udm387.1.2 bus2=p1udm390.1.2 switch=n enabled=y phases=2 Linecode=1P_OH_AL_2/0_Rucina_2

New Line.l(r:p1udm387-p1udt101lv) Units=km Length=0.015504400000000002 bus1=p1udt101lv.1.2 bus2=p1udm387.1.2 switch=n enabled=y phases=2 Linecode=1P_OH_AL_2/0_Rucina_2

New Line.l(r:p1udm389-p1ulv2635) Units=km Length=0.0210584 bus1=p1udm389.1.2 bus2=p1ulv2635.1.2 switch=n enabled=y phases=2 Linecode=1P_OH_AL_2/0_Rucina_2

New Line.l(r:p1udm389-p1ulv3728) Units=km Length=0.0153011 bus1=p1udm389.1.2 bus2=p1ulv3728.1.2 switch=n enabled=y phases=2 Linecode=1P_OH_AL_2/0_Rucina_2

New Line.l(r:p1udm389-p1ulv8060) Units=km Length=0.017622100000000005 bus1=p1udm389.1.2 bus2=p1ulv8060.1.2 switch=n enabled=y phases=2 Linecode=1P_OH_AL_2/0_Rucina_2

New Line.l(r:p1udm389-p1udt101lv) Units=km Length=0.015504400000000002 bus1=p1udt101lv.1.2 bus2=p1udm389.1.2 switch=n enabled=y phases=2 Linecode=1P_OH_AL_2/0_Rucina_2

New Line.l(r:p1udm395-p1ulv6798) Units=km Length=0.0214992 bus1=p1udm395.1.2 bus2=p1ulv6798.1.2 switch=n enabled=y phases=2 Linecode=1P_OH_AL_2/0_Rucina_2

New Line.l(r:p1udm395-p1ulv8039) Units=km Length=0.0123372 bus1=p1udm395.1.2 bus2=p1ulv8039.1.2 switch=n enabled=y phases=2 Linecode=1P_OH_AL_2/0_Rucina_2

New Line.l(r:p1udm395-p1ulv11822) Units=km Length=0.0167169 bus1=p1udm395.1.2 bus2=p1ulv11822.1.2 switch=n enabled=y phases=2 Linecode=1P_OH_AL_2/0_Rucina_2

New Line.l(r:p1udm395-p1udt102lv) Units=km Length=0.0388403 bus1=p1udt102lv.1.2 bus2=p1udm395.1.2 switch=n enabled=y phases=2 Linecode=1P_OH_AL_4/0_Zuzara_2

New Line.l(r:p1udm398-p1ulv12302) Units=km Length=0.0123899 bus1=p1udm398.1.2 bus2=p1ulv12302.1.2 switch=n enabled=y phases=2 Linecode=1P_OH_AL_2/0_Rucina_2

New Line.l(r:p1udm394-p1ulv105) Units=km Length=0.00950916 bus1=p1udm394.1.2 bus2=p1ulv105.1.2 switch=n enabled=y phases=2 Linecode=1P_OH_AL_2/0_Rucina_2

New Line.l(r:p1udm394-p1udm398) Units=km Length=0.019414200000000003 bus1=p1udm398.1.2 bus2=p1udm394.1.2 switch=n enabled=y phases=2 Linecode=1P_OH_AL_2/0_Rucina_2

New Line.l(r:p1udm398-p1udt102lv) Units=km Length=0.0388306 bus1=p1udt102lv.1.2 bus2=p1udm398.1.2 switch=n enabled=y phases=2 Linecode=1P_OH_AL_4/0_Zuzara_2

New Line.l(r:p1udt193lv-p1ulv200) Units=km Length=0.010192 bus1=p1udt193lv.1.2 bus2=p1ulv200.1.2 switch=n enabled=y phases=2 Linecode=1P_OH_AL_2/0_Rucina_2

New Line.l(r:p1udt193lv-p1ulv6270) Units=km Length=0.0124944 bus1=p1udt193lv.1.2 bus2=p1ulv6270.1.2 switch=n enabled=y phases=2 Linecode=1P_OH_AL_2/0_Rucina_2

New Line.l(r:p1udm705-p1ulv4661) Units=km Length=0.022230200000000002 bus1=p1udm705.1.2 bus2=p1ulv4661.1.2 switch=n enabled=y phases=2 Linecode=1P_OH_AL_2/0_Rucina_2

New Line.l(r:p1udm705-p1udt193lv) Units=km Length=0.0178536 bus1=p1udt193lv.1.2 bus2=p1udm705.1.2 switch=n enabled=y phases=2 Linecode=1P_OH_AL_2/0_Rucina_2

New Line.l(r:p1udm706-p1ulv6021) Units=km Length=0.0131839 bus1=p1udm706.1.2 bus2=p1ulv6021.1.2 switch=n enabled=y phases=2 Linecode=1P_OH_AL_2/0_Rucina_2

New Line.l(r:p1udm706-p1ulv8525) Units=km Length=0.0084949 bus1=p1udm706.1.2 bus2=p1ulv8525.1.2 switch=n enabled=y phases=2 Linecode=1P_OH_AL_2/0_Rucina_2

New Line.l(r:p1udm706-p1udt193lv) Units=km Length=0.0356971 bus1=p1udt193lv.1.2 bus2=p1udm706.1.2 switch=n enabled=y phases=2 Linecode=1P_OH_AL_4/0_Zuzara_2

New Line.l(r:p1udt194lv-p1ulv4554) Units=km Length=0.010375800000000001 bus1=p1udt194lv.1.2 bus2=p1ulv4554.1.2 switch=n enabled=y phases=2 Linecode=1P_OH_AL_2/0_Rucina_2

New Line.l(r:p1udt194lv-p1ulv7165) Units=km Length=0.0167732 bus1=p1udt194lv.1.2 bus2=p1ulv7165.1.2 switch=n enabled=y phases=2 Linecode=1P_OH_AL_2/0_Rucina_2

New Line.l(r:p1udm709-p1ulv201) Units=km Length=0.0377363 bus1=p1udm709.1.2 bus2=p1ulv201.1.2 switch=n enabled=y phases=2 Linecode=1P_OH_AL_4/0_Zuzara_2

New Line.l(r:p1udm709-p1ulv5462) Units=km Length=0.0202423 bus1=p1udm709.1.2 bus2=p1ulv5462.1.2 switch=n enabled=y phases=2 Linecode=1P_OH_AL_2/0_Rucina_2

New Line.l(r:p1udm709-p1udt194lv) Units=km Length=0.017705500000000002 bus1=p1udt194lv.1.2 bus2=p1udm709.1.2 switch=n enabled=y phases=2 Linecode=1P_OH_AL_2/0_Rucina_2_2

New Line.l(r:p1udm713-p1ulv8171) Units=km Length=0.00993161 bus1=p1udm713.1.2 bus2=p1ulv8171.1.2 switch=n enabled=y phases=2 Linecode=1P_OH_AL_2/0_Rucina_2

New Line.l(r:p1udm713-p1udt194lv) Units=km Length=0.0177071 bus1=p1udt194lv.1.2 bus2=p1udm713.1.2 switch=n enabled=y phases=2 Linecode=1P_OH_AL_2/0_Rucina_2

New Line.l(r:p1udm714-p1ulv202) Units=km Length=0.00948482 bus1=p1udm714.1.2 bus2=p1ulv202.1.2 switch=n enabled=y phases=2 Linecode=1P_UG_AL_2/0_Converse_2

New Line.l(r:p1udm714-p1ulv6027) Units=km Length=0.0216243 bus1=p1udm714.1.2 bus2=p1ulv6027.1.2 switch=n enabled=y phases=2 Linecode=1P_UG_AL_1/0_Brenau_2

New Line.l(r:p1udm714-p1udt195lv) Units=km Length=0.00975347 bus1=p1udt195lv.1.2 bus2=p1udm714.1.2 switch=n enabled=y phases=2 Linecode=1P_UG_AL_4/0_Sweetbriar_2

New Line.l(r:p1udm717-p1ulv11460) Units=km Length=0.0212374 bus1=p1udm717.1.2 bus2=p1ulv11460.1.2 switch=n enabled=y phases=2 Linecode=1P_UG_AL_1/0_Brenau_2

New Line.l(r:p1udm716-p1ulv10256) Units=km Length=0.00813842 bus1=p1udm716.1.2 bus2=p1ulv10256.1.2 switch=n enabled=y phases=2 Linecode=1P_UG_AL_1/0_Brenau_2

New Line.l(r:p1udm716-p1udm717) Units=km Length=0.009743210000000002 bus1=p1udm717.1.2 bus2=p1udm716.1.2 switch=n enabled=y phases=2 Linecode=1P_UG_AL_1/0_Brenau_2

New Line.l(r:p1udm717-p1udt195lv) Units=km Length=0.00974347 bus1=p1udt195lv.1.2 bus2=p1udm717.1.2 switch=n enabled=y phases=2 Linecode=1P_UG_AL_2/0_Converse_2

New Line.l(r:p1udt207lv-p1ulv5148) Units=km Length=0.0113881 bus1=p1udt207lv.1.2 bus2=p1ulv5148.1.2 switch=n enabled=y phases=2 Linecode=1P_OH_AL_2/0_Rucina_2

New Line.l(r:p1udm766-p1ulv216) Units=km Length=0.005974410000000001 bus1=p1udm766.1.2 bus2=p1ulv216.1.2 switch=n enabled=y phases=2 Linecode=1P_OH_AL_2/0_Rucina_2

New Line.l(r:p1udm766-p1udt207lv) Units=km Length=0.09547170000000002 bus1=p1udt207lv.1.2 bus2=p1udm766.1.2 switch=n enabled=y phases=2 Linecode=1P_OH_AL_4/0_Zuzara_2

New Line.l(r:p1udm767-p1ulv3616) Units=km Length=0.0155036 bus1=p1udm767.1.2 bus2=p1ulv3616.1.2 switch=n enabled=y phases=2 Linecode=1P_OH_AL_2/0_Rucina_2

New Line.l(r:p1udm767-p1ulv4199) Units=km Length=0.00873277 bus1=p1udm767.1.2 bus2=p1ulv4199.1.2 switch=n enabled=y phases=2 Linecode=1P_OH_AL_2/0_Rucina_2

New Line.l(r:p1udm769-p1ulv5129) Units=km Length=0.0132795 bus1=p1udm769.1.2 bus2=p1ulv5129.1.2 switch=n enabled=y phases=2 Linecode=1P_OH_AL_2/0_Rucina_2

New Line.l(r:p1udm767-p1udm769) Units=km Length=0.0194261 bus1=p1udm767.1.2 bus2=p1udm769.1.2 switch=n enabled=y phases=2 Linecode=1P_OH_AL_2/0_Rucina_2

New Line.l(r:p1udm767-p1udt207lv) Units=km Length=0.019414200000000003 bus1=p1udt207lv.1.2 bus2=p1udm767.1.2 switch=n enabled=y phases=2 Linecode=1P_OH_AL_2/0_Rucina_2

New Line.l(r:p1udt285lv-p1ulv302) Units=km Length=0.0159617 bus1=p1udt285lv.1.2 bus2=p1ulv302.1.2 switch=n enabled=y phases=2 Linecode=1P_OH_AL_2/0_Rucina_2

New Line.l(r:p1udt285lv-p1ulv2469) Units=km Length=0.0135675 bus1=p1udt285lv.1.2 bus2=p1ulv2469.1.2 switch=n enabled=y phases=2 Linecode=1P_OH_AL_2/0_Rucina_2

New Line.l(r:p1udm1031-p1ulv9423) Units=km Length=0.0134486 bus1=p1udm1031.1.2 bus2=p1ulv9423.1.2 switch=n enabled=y phases=2 Linecode=1P_OH_AL_2/0_Rucina_2

New Line.l(r:p1udm1031-p1ulv11932) Units=km Length=0.019214 bus1=p1udm1031.1.2 bus2=p1ulv11932.1.2 switch=n enabled=y phases=2 Linecode=1P_OH_AL_2/0_Rucina_2

New Line.l(r:p1udm1031-p1udt285lv) Units=km Length=0.0199158 bus1=p1udt285lv.1.2 bus2=p1udm1031.1.2 switch=n enabled=y phases=2 Linecode=1P_OH_AL_2/0_Rucina_2

New Line.l(r:p1udm1032-p1ulv10365) Units=km Length=0.0188059 bus1=p1udm1032.1.2 bus2=p1ulv10365.1.2 switch=n enabled=y phases=2 Linecode=1P_OH_AL_2/0_Rucina_2

New Line.l(r:p1udm1032-p1udt285lv) Units=km Length=0.0199299 bus1=p1udt285lv.1.2 bus2=p1udm1032.1.2 switch=n enabled=y phases=2 Linecode=1P_OH_AL_2/0_Rucina_2

New Line.l(r:p1udt286lv-p1ulv303) Units=km Length=0.0210073 bus1=p1udt286lv.1.2 bus2=p1ulv303.1.2 switch=n enabled=y phases=2 Linecode=1P_OH_AL_2/0_Rucina_2

New Line.l(r:p1udt286lv-p1ulv12382) Units=km Length=0.0223479 bus1=p1udt286lv.1.2 bus2=p1ulv12382.1.2 switch=n enabled=y phases=2 Linecode=1P_OH_AL_2/0_Rucina_2

New Line.l(r:p1udt287lv-p1ulv304) Units=km Length=0.05763610000000001 bus1=p1udt287lv.1.2 bus2=p1ulv304.1.2 switch=n enabled=y phases=2 Linecode=1P_OH_AL_4/0_Zuzara_2

New Line.l(r:p1udt287lv-p1ulv1841) Units=km Length=0.00702141 bus1=p1udt287lv.1.2 bus2=p1ulv1841.1.2 switch=n enabled=y phases=2 Linecode=1P_OH_AL_2/0_Rucina_2

New Line.l(r:p1udm1037-p1ulv305) Units=km Length=0.00678593 bus1=p1udm1037.1.2 bus2=p1ulv305.1.2 switch=n enabled=y phases=2 Linecode=1P_OH_AL_2/0_Rucina_2

New Line.l(r:p1udm1037-p1ulv6129) Units=km Length=0.0221409 bus1=p1udm1037.1.2 bus2=p1ulv6129.1.2 switch=n enabled=y phases=2 Linecode=1P_OH_AL_2/0_Rucina_2

New Line.l(r:p1udm1037-p1udt287lv) Units=km Length=0.0105331 bus1=p1udt287lv.1.2 bus2=p1udm1037.1.2 switch=n enabled=y phases=2 Linecode=1P_OH_AL_2/0_Rucina_2

New Line.l(r:p1udm1039-p1ulv4771) Units=km Length=0.0212422 bus1=p1udm1039.1.2 bus2=p1ulv4771.1.2 switch=n enabled=y phases=2 Linecode=1P_OH_AL_2/0_Rucina_2

New Line.l(r:p1udm1039-p1udt287lv) Units=km Length=0.0121517 bus1=p1udt287lv.1.2 bus2=p1udm1039.1.2 switch=n enabled=y phases=2 Linecode=1P_OH_AL_2/0_Rucina_2

New Line.l(r:p1udt288lv-p1ulv3450) Units=km Length=0.0142618 bus1=p1udt288lv.1.2 bus2=p1ulv3450.1.2 switch=n enabled=y phases=2 Linecode=1P_OH_AL_2/0_Rucina_2

New Line.l(r:p1udt288lv-p1ulv9182) Units=km Length=0.0179488 bus1=p1udt288lv.1.2 bus2=p1ulv9182.1.2 switch=n enabled=y phases=2 Linecode=1P_OH_AL_2/0_Rucina_2

New Line.l(r:p1udm1041-p1ulv306) Units=km Length=0.0142805 bus1=p1udm1041.1.2 bus2=p1ulv306.1.2 switch=n enabled=y phases=2 Linecode=1P_OH_AL_2/0_Rucina_2

New Line.l(r:p1udm1041-p1ulv3813) Units=km Length=0.0174314 bus1=p1udm1041.1.2 bus2=p1ulv3813.1.2 switch=n enabled=y phases=2 Linecode=1P_OH_AL_2/0_Rucina_2

New Line.l(r:p1udm1041-p1udt288lv) Units=km Length=0.0184423 bus1=p1udt288lv.1.2 bus2=p1udm1041.1.2 switch=n enabled=y phases=2 Linecode=1P_OH_AL_2/0_Rucina_2

New Line.l(r:p1udm1044-p1ulv5120) Units=km Length=0.013774 bus1=p1udm1044.1.2 bus2=p1ulv5120.1.2 switch=n enabled=y phases=2 Linecode=1P_OH_AL_2/0_Rucina_2

New Line.l(r:p1udm1044-p1ulv10482) Units=km Length=0.016511000000000005 bus1=p1udm1044.1.2 bus2=p1ulv10482.1.2 switch=n enabled=y phases=2 Linecode=1P_OH_AL_2/0_Rucina_2

New Line.l(r:p1udm1044-p1udt288lv) Units=km Length=0.0184421 bus1=p1udt288lv.1.2 bus2=p1udm1044.1.2 switch=n enabled=y phases=2 Linecode=1P_OH_AL_2/0_Rucina_2

New Line.l(r:p1udt295lv-p1ulv314) Units=km Length=0.00887442 bus1=p1udt295lv.1.2 bus2=p1ulv314.1.2 switch=n enabled=y phases=2 Linecode=1P_OH_AL_2/0_Rucina_2

New Line.l(r:p1udm1067-p1ulv7901) Units=km Length=0.0137863 bus1=p1udm1067.1.2 bus2=p1ulv7901.1.2 switch=n enabled=y phases=2 Linecode=1P_OH_AL_2/0_Rucina_2

New Line.l(r:p1udm1067-p1udt295lv) Units=km Length=0.0149449 bus1=p1udt295lv.1.2 bus2=p1udm1067.1.2 switch=n enabled=y phases=2 Linecode=1P_OH_AL_2/0_Rucina_2

New Line.l(r:p1udt296lv-p1ulv11103) Units=km Length=0.00681007 bus1=p1udt296lv.1.2 bus2=p1ulv11103.1.2 switch=n enabled=y phases=2 Linecode=1P_OH_AL_2/0_Rucina_2

New Line.l(r:p1udm1070-p1ulv3461) Units=km Length=0.00757877 bus1=p1udm1070.1.2 bus2=p1ulv3461.1.2 switch=n enabled=y phases=2 Linecode=1P_OH_AL_2/0_Rucina_2

New Line.l(r:p1udm1069-p1ulv1207) Units=km Length=0.007564930000000001 bus1=p1udm1069.1.2 bus2=p1ulv1207.1.2 switch=n enabled=y phases=2 Linecode=1P_OH_AL_2/0_Rucina_2

New Line.l(r:p1udm1068-p1ulv315) Units=km Length=0.006404880000000001 bus1=p1udm1068.1.2 bus2=p1ulv315.1.2 switch=n enabled=y phases=2 Linecode=1P_OH_AL_2/0_Rucina_2

New Line.l(r:p1udm1068-p1udm1069) Units=km Length=0.0199524 bus1=p1udm1069.1.2 bus2=p1udm1068.1.2 switch=n enabled=y phases=2 Linecode=1P_OH_AL_2/0_Rucina_2

New Line.l(r:p1udm1069-p1udm1070) Units=km Length=0.019941800000000003 bus1=p1udm1070.1.2 bus2=p1udm1069.1.2 switch=n enabled=y phases=2 Linecode=1P_OH_AL_2/0_Rucina_2

New Line.l(r:p1udm1070-p1udt296lv) Units=km Length=0.0199524 bus1=p1udt296lv.1.2 bus2=p1udm1070.1.2 switch=n enabled=y phases=2 Linecode=1P_OH_AL_2/0_Rucina_2

New Line.l(r:p1udm1073-p1ulv8393) Units=km Length=0.00770154 bus1=p1udm1073.1.2 bus2=p1ulv8393.1.2 switch=n enabled=y phases=2 Linecode=1P_OH_AL_2/0_Rucina_2

New Line.l(r:p1udm1072-p1ulv7424) Units=km Length=0.00675433 bus1=p1udm1072.1.2 bus2=p1ulv7424.1.2 switch=n enabled=y phases=2 Linecode=1P_OH_AL_2/0_Rucina_2

New Line.l(r:p1udm1071-p1ulv5901) Units=km Length=0.00359707 bus1=p1udm1071.1.2 bus2=p1ulv5901.1.2 switch=n enabled=y phases=2 Linecode=1P_OH_AL_4_Periwinkle_2

New Line.l(r:p1udm1071-p1udm1072) Units=km Length=0.0199524 bus1=p1udm1072.1.2 bus2=p1udm1071.1.2 switch=n enabled=y phases=2 Linecode=1P_OH_AL_2/0_Rucina_2

New Line.l(r:p1udm1072-p1udm1073) Units=km Length=0.019941800000000003 bus1=p1udm1073.1.2 bus2=p1udm1072.1.2 switch=n enabled=y phases=2 Linecode=1P_OH_AL_2/0_Rucina_2

New Line.l(r:p1udm1073-p1udt296lv) Units=km Length=0.0199517 bus1=p1udt296lv.1.2 bus2=p1udm1073.1.2 switch=n enabled=y phases=2 Linecode=1P_OH_AL_2/0_Rucina_2

New Line.l(r:p1udm1075-p1ulv316) Units=km Length=0.0201809 bus1=p1udm1075.1.2 bus2=p1ulv316.1.2 switch=n enabled=y phases=2 Linecode=1P_UG_AL_1/0_Brenau_2

New Line.l(r:p1udm1075-p1ulv10128) Units=km Length=0.0104537 bus1=p1udm1075.1.2 bus2=p1ulv10128.1.2 switch=n enabled=y phases=2 Linecode=1P_UG_AL_1/0_Brenau_2

New Line.l(r:p1udm1075-p1udt297lv) Units=km Length=0.00923936 bus1=p1udt297lv.1.2 bus2=p1udm1075.1.2 switch=n enabled=y phases=2 Linecode=1P_UG_AL_2/0_Converse_2

New Line.l(r:p1udm1076-p1ulv3209) Units=km Length=0.00664309 bus1=p1udm1076.1.2 bus2=p1ulv3209.1.2 switch=n enabled=y phases=2 Linecode=1P_UG_AL_1/0_Brenau_2

New Line.l(r:p1udm1076-p1ulv8928) Units=km Length=0.023731 bus1=p1udm1076.1.2 bus2=p1ulv8928.1.2 switch=n enabled=y phases=2 Linecode=1P_UG_AL_1/0_Brenau_2

New Line.l(r:p1udm1079-p1ulv11701) Units=km Length=0.00589804 bus1=p1udm1079.1.2 bus2=p1ulv11701.1.2 switch=n enabled=y phases=2 Linecode=1P_UG_AL_1/0_Brenau_2

New Line.l(r:p1udm1076-p1udm1079) Units=km Length=0.0184589 bus1=p1udm1076.1.2 bus2=p1udm1079.1.2 switch=n enabled=y phases=2 Linecode=1P_UG_AL_1/0_Brenau_2

New Line.l(r:p1udm1076-p1udt297lv) Units=km Length=0.00922944 bus1=p1udt297lv.1.2 bus2=p1udm1076.1.2 switch=n enabled=y phases=2 Linecode=1P_UG_AL_4/0_Sweetbriar_2

New Line.l(r:p1udt298lv-p1ulv4076) Units=km Length=0.0158461 bus1=p1udt298lv.1.2 bus2=p1ulv4076.1.2 switch=n enabled=y phases=2 Linecode=1P_OH_AL_2/0_Rucina_2

New Line.l(r:p1udt298lv-p1ulv8395) Units=km Length=0.0140332 bus1=p1udt298lv.1.2 bus2=p1ulv8395.1.2 switch=n enabled=y phases=2 Linecode=1P_OH_AL_2/0_Rucina_2

New Line.l(r:p1udm1080-p1ulv317) Units=km Length=0.0216169 bus1=p1udm1080.1.2 bus2=p1ulv317.1.2 switch=n enabled=y phases=2 Linecode=1P_OH_AL_2/0_Rucina_2

New Line.l(r:p1udm1080-p1udt298lv) Units=km Length=0.0174271 bus1=p1udt298lv.1.2 bus2=p1udm1080.1.2 switch=n enabled=y phases=2 Linecode=1P_OH_AL_2/0_Rucina_2

New Line.l(r:p1udm1084-p1ulv8660) Units=km Length=0.0103038 bus1=p1udm1084.1.2 bus2=p1ulv8660.1.2 switch=n enabled=y phases=2 Linecode=1P_OH_AL_2/0_Rucina_2

New Line.l(r:p1udm1082-p1ulv6804) Units=km Length=0.012939900000000002 bus1=p1udm1082.1.2 bus2=p1ulv6804.1.2 switch=n enabled=y phases=2 Linecode=1P_OH_AL_2/0_Rucina_2

New Line.l(r:p1udm1082-p1ulv11581) Units=km Length=0.041085 bus1=p1udm1082.1.2 bus2=p1ulv11581.1.2 switch=n enabled=y phases=2 Linecode=1P_OH_AL_4/0_Zuzara_2

New Line.l(r:p1udm1082-p1udm1084) Units=km Length=0.014976800000000002 bus1=p1udm1084.1.2 bus2=p1udm1082.1.2 switch=n enabled=y phases=2 Linecode=1P_OH_AL_2/0_Rucina_2

New Line.l(r:p1udm1084-p1udt298lv) Units=km Length=0.0174371 bus1=p1udt298lv.1.2 bus2=p1udm1084.1.2 switch=n enabled=y phases=2 Linecode=1P_OH_AL_2/0_Rucina_2

New Line.l(r:p1udm1089-p1ulv319) Units=km Length=0.0174265 bus1=p1udm1089.1.2 bus2=p1ulv319.1.2 switch=n enabled=y phases=2 Linecode=1P_UG_AL_1/0_Brenau_2

New Line.l(r:p1udm1089-p1ulv6666) Units=km Length=0.0246583 bus1=p1udm1089.1.2 bus2=p1ulv6666.1.2 switch=n enabled=y phases=2 Linecode=1P_UG_AL_1/0_Brenau_2

New Line.l(r:p1udm1090-p1ulv4665) Units=km Length=0.0187054 bus1=p1udm1090.1.2 bus2=p1ulv4665.1.2 switch=n enabled=y phases=2 Linecode=1P_UG_AL_1/0_Brenau_2

New Line.l(r:p1udm1089-p1udm1090) Units=km Length=0.0254598 bus1=p1udm1089.1.2 bus2=p1udm1090.1.2 switch=n enabled=y phases=2 Linecode=1P_UG_AL_1/0_Brenau_2

New Line.l(r:p1udm1089-p1udt300lv) Units=km Length=0.00909651 bus1=p1udt300lv.1.2 bus2=p1udm1089.1.2 switch=n enabled=y phases=2 Linecode=1P_UG_AL_4/0_Sweetbriar_2

New Line.l(r:p1udm1093-p1ulv10026) Units=km Length=0.0538255 bus1=p1udm1093.1.2 bus2=p1ulv10026.1.2 switch=n enabled=y phases=2 Linecode=1P_UG_AL_1/0_Brenau_2

New Line.l(r:p1udm1091-p1ulv5797) Units=km Length=0.010180200000000002 bus1=p1udm1091.1.2 bus2=p1ulv5797.1.2 switch=n enabled=y phases=2 Linecode=1P_UG_AL_1/0_Brenau_2

New Line.l(r:p1udm1094-p1ulv11703) Units=km Length=0.020982 bus1=p1udm1094.1.2 bus2=p1ulv11703.1.2 switch=n enabled=y phases=2 Linecode=1P_UG_AL_1/0_Brenau_2

New Line.l(r:p1udm1091-p1udm1094) Units=km Length=0.00909651 bus1=p1udm1091.1.2 bus2=p1udm1094.1.2 switch=n enabled=y phases=2 Linecode=1P_UG_AL_1/0_Brenau_2

New Line.l(r:p1udm1091-p1udm1093) Units=km Length=0.00909824 bus1=p1udm1093.1.2 bus2=p1udm1091.1.2 switch=n enabled=y phases=2 Linecode=1P_UG_AL_1/0_Brenau_2

New Line.l(r:p1udm1093-p1udt300lv) Units=km Length=0.00909651 bus1=p1udt300lv.1.2 bus2=p1udm1093.1.2 switch=n enabled=y phases=2 Linecode=1P_UG_AL_2/0_Converse_2

New Line.l(r:p1udm1095-p1ulv320) Units=km Length=0.017185500000000003 bus1=p1udm1095.1.2 bus2=p1ulv320.1.2 switch=n enabled=y phases=2 Linecode=1P_UG_AL_1/0_Brenau_2

New Line.l(r:p1udm1095-p1udt301lv) Units=km Length=0.0192013 bus1=p1udt301lv.1.2 bus2=p1udm1095.1.2 switch=n enabled=y phases=2 Linecode=1P_UG_AL_1/0_Brenau_2

New Line.l(r:p1udm1096-p1ulv8400) Units=km Length=0.0127849 bus1=p1udm1096.1.2 bus2=p1ulv8400.1.2 switch=n enabled=y phases=2 Linecode=1P_UG_AL_1/0_Brenau_2

New Line.l(r:p1udm1096-p1udt301lv) Units=km Length=0.0191913 bus1=p1udt301lv.1.2 bus2=p1udm1096.1.2 switch=n enabled=y phases=2 Linecode=1P_UG_AL_1/0_Brenau_2

New Line.l(r:p1udm1155-p1ulv335) Units=km Length=0.0339499 bus1=p1udm1155.1.2 bus2=p1ulv335.1.2 switch=n enabled=y phases=2 Linecode=1P_OH_AL_4/0_Zuzara_2

New Line.l(r:p1udm1155-p1udt314lv) Units=km Length=0.0156446 bus1=p1udt314lv.1.2 bus2=p1udm1155.1.2 switch=n enabled=y phases=2 Linecode=1P_OH_AL_2/0_Rucina_2

New Line.l(r:p1udm1156-p1ulv11955) Units=km Length=0.0321616 bus1=p1udm1156.1.2 bus2=p1ulv11955.1.2 switch=n enabled=y phases=2 Linecode=1P_OH_AL_4/0_Zuzara_2

New Line.l(r:p1udm1156-p1udt314lv) Units=km Length=0.0156449 bus1=p1udt314lv.1.2 bus2=p1udm1156.1.2 switch=n enabled=y phases=2 Linecode=1P_OH_AL_2/0_Rucina_2

New Line.l(r:p1udt315lv-p1ulv337) Units=km Length=0.03365490000000001 bus1=p1udt315lv.1.2 bus2=p1ulv337.1.2 switch=n enabled=y phases=2 Linecode=1P_UG_AL_1/0_Brenau_2

New Line.l(r:p1udt315lv-p1ulv3967) Units=km Length=0.00941257 bus1=p1udt315lv.1.2 bus2=p1ulv3967.1.2 switch=n enabled=y phases=2 Linecode=1P_UG_AL_1/0_Brenau_2

New Line.l(r:p1udm1158-p1ulv2259) Units=km Length=0.0125376 bus1=p1udm1158.1.2 bus2=p1ulv2259.1.2 switch=n enabled=y phases=2 Linecode=1P_UG_AL_1/0_Brenau_2

New Line.l(r:p1udm1158-p1udt315lv) Units=km Length=0.0187675 bus1=p1udt315lv.1.2 bus2=p1udm1158.1.2 switch=n enabled=y phases=2 Linecode=1P_UG_AL_1/0_Brenau_2

New Line.l(r:p1udm1160-p1ulv10276) Units=km Length=0.0141341 bus1=p1udm1160.1.2 bus2=p1ulv10276.1.2 switch=n enabled=y phases=2 Linecode=1P_UG_AL_1/0_Brenau_2

New Line.l(r:p1udm1160-p1ulv11224) Units=km Length=0.0123818 bus1=p1udm1160.1.2 bus2=p1ulv11224.1.2 switch=n enabled=y phases=2 Linecode=1P_UG_AL_1/0_Brenau_2

New Line.l(r:p1udm1160-p1udt315lv) Units=km Length=0.018757800000000005 bus1=p1udt315lv.1.2 bus2=p1udm1160.1.2 switch=n enabled=y phases=2 Linecode=1P_UG_AL_2/0_Converse_2

New Line.l(r:p1udm1163-p1ulv2867) Units=km Length=0.0508344 bus1=p1udm1163.1.2 bus2=p1ulv2867.1.2 switch=n enabled=y phases=2 Linecode=1P_OH_AL_4/0_Zuzara_2

New Line.l(r:p1udm1163-p1ulv9700) Units=km Length=0.0261416 bus1=p1udm1163.1.2 bus2=p1ulv9700.1.2 switch=n enabled=y phases=2 Linecode=1P_OH_AL_2/0_Rucina_2

New Line.l(r:p1udm1163-p1ulv12163) Units=km Length=0.0126087 bus1=p1udm1163.1.2 bus2=p1ulv12163.1.2 switch=n enabled=y phases=2 Linecode=1P_OH_AL_2/0_Rucina_2

New Line.l(r:p1udm1163-p1udt316lv) Units=km Length=0.0346999 bus1=p1udt316lv.1.2 bus2=p1udm1163.1.2 switch=n enabled=y phases=2 Linecode=1P_OH_AL_4/0_Zuzara_2

New Line.l(r:p1udm1164-p1ulv6682) Units=km Length=0.043037700000000005 bus1=p1udm1164.1.2 bus2=p1ulv6682.1.2 switch=n enabled=y phases=2 Linecode=1P_OH_AL_4/0_Zuzara_2

New Line.l(r:p1udm1162-p1ulv338) Units=km Length=0.0195953 bus1=p1udm1162.1.2 bus2=p1ulv338.1.2 switch=n enabled=y phases=2 Linecode=1P_OH_AL_2/0_Rucina_2

New Line.l(r:p1udm1162-p1ulv9589) Units=km Length=0.012141400000000002 bus1=p1udm1162.1.2 bus2=p1ulv9589.1.2 switch=n enabled=y phases=2 Linecode=1P_OH_AL_2/0_Rucina_2

New Line.l(r:p1udm1162-p1udm1164) Units=km Length=0.0173499 bus1=p1udm1164.1.2 bus2=p1udm1162.1.2 switch=n enabled=y phases=2 Linecode=1P_OH_AL_2/0_Rucina_2

New Line.l(r:p1udm1164-p1udt316lv) Units=km Length=0.0173499 bus1=p1udt316lv.1.2 bus2=p1udm1164.1.2 switch=n enabled=y phases=2 Linecode=1P_OH_AL_2/0_Rucina_2

New Line.l(r:p1udt394lv-p1ulv423) Units=km Length=0.018155 bus1=p1udt394lv.1.2 bus2=p1ulv423.1.2 switch=n enabled=y phases=2 Linecode=1P_OH_AL_2/0_Rucina_2

New Line.l(r:p1udt394lv-p1ulv10642) Units=km Length=0.0129662 bus1=p1udt394lv.1.2 bus2=p1ulv10642.1.2 switch=n enabled=y phases=2 Linecode=1P_OH_AL_2/0_Rucina_2

New Line.l(r:p1udm1442-p1ulv738) Units=km Length=0.013593900000000003 bus1=p1udm1442.1.2 bus2=p1ulv738.1.2 switch=n enabled=y phases=2 Linecode=1P_OH_AL_2/0_Rucina_2

New Line.l(r:p1udm1443-p1ulv1330) Units=km Length=0.013639900000000002 bus1=p1udm1443.1.2 bus2=p1ulv1330.1.2 switch=n enabled=y phases=2 Linecode=1P_OH_AL_2/0_Rucina_2

New Line.l(r:p1udm1442-p1udm1443) Units=km Length=0.0184423 bus1=p1udm1442.1.2 bus2=p1udm1443.1.2 switch=n enabled=y phases=2 Linecode=1P_OH_AL_2/0_Rucina_2

New Line.l(r:p1udm1442-p1udt394lv) Units=km Length=0.0184421 bus1=p1udt394lv.1.2 bus2=p1udm1442.1.2 switch=n enabled=y phases=2 Linecode=1P_OH_AL_2/0_Rucina_2

New Line.l(r:p1udm1444-p1ulv3448) Units=km Length=0.0174533 bus1=p1udm1444.1.2 bus2=p1ulv3448.1.2 switch=n enabled=y phases=2 Linecode=1P_OH_AL_2/0_Rucina_2

New Line.l(r:p1udm1444-p1ulv9556) Units=km Length=0.012838100000000002 bus1=p1udm1444.1.2 bus2=p1ulv9556.1.2 switch=n enabled=y phases=2 Linecode=1P_OH_AL_2/0_Rucina_2

New Line.l(r:p1udm1444-p1udt394lv) Units=km Length=0.0184423 bus1=p1udt394lv.1.2 bus2=p1udm1444.1.2 switch=n enabled=y phases=2 Linecode=1P_OH_AL_2/0_Rucina_2

New Line.l(r:p1udt395lv-p1ulv5008) Units=km Length=0.014173600000000001 bus1=p1udt395lv.1.2 bus2=p1ulv5008.1.2 switch=n enabled=y phases=2 Linecode=1P_UG_AL_1/0_Brenau_2

New Line.l(r:p1udm1447-p1ulv424) Units=km Length=0.0153296 bus1=p1udm1447.1.2 bus2=p1ulv424.1.2 switch=n enabled=y phases=2 Linecode=1P_UG_AL_1/0_Brenau_2

New Line.l(r:p1udm1450-p1ulv10252) Units=km Length=0.0136289 bus1=p1udm1450.1.2 bus2=p1ulv10252.1.2 switch=n enabled=y phases=2 Linecode=1P_UG_AL_1/0_Brenau_2

New Line.l(r:p1udm1447-p1udm1450) Units=km Length=0.017940400000000002 bus1=p1udm1447.1.2 bus2=p1udm1450.1.2 switch=n enabled=y phases=2 Linecode=1P_UG_AL_1/0_Brenau_2

New Line.l(r:p1udm1447-p1udt395lv) Units=km Length=0.0199751 bus1=p1udt395lv.1.2 bus2=p1udm1447.1.2 switch=n enabled=y phases=2 Linecode=1P_UG_AL_2/0_Converse_2

New Line.l(r:p1udm1449-p1ulv6795) Units=km Length=0.0148848 bus1=p1udm1449.1.2 bus2=p1ulv6795.1.2 switch=n enabled=y phases=2 Linecode=1P_UG_AL_1/0_Brenau_2

New Line.l(r:p1udm1451-p1ulv12047) Units=km Length=0.0148744 bus1=p1udm1451.1.2 bus2=p1ulv12047.1.2 switch=n enabled=y phases=2 Linecode=1P_UG_AL_1/0_Brenau_2

New Line.l(r:p1udm1449-p1udm1451) Units=km Length=0.0199753 bus1=p1udm1449.1.2 bus2=p1udm1451.1.2 switch=n enabled=y phases=2 Linecode=1P_UG_AL_1/0_Brenau_2

New Line.l(r:p1udm1449-p1udt395lv) Units=km Length=0.00998242 bus1=p1udt395lv.1.2 bus2=p1udm1449.1.2 switch=n enabled=y phases=2 Linecode=1P_UG_AL_2/0_Converse_2

New Line.l(r:p1udt401lv-p1ulv430) Units=km Length=0.0223266 bus1=p1udt401lv.1.2 bus2=p1ulv430.1.2 switch=n enabled=y phases=2 Linecode=1P_UG_AL_1/0_Brenau_2

New Line.l(r:p1udt401lv-p1ulv7051) Units=km Length=0.0464348 bus1=p1udt401lv.1.2 bus2=p1ulv7051.1.2 switch=n enabled=y phases=2 Linecode=1P_UG_AL_1/0_Brenau_2

New Line.l(r:p1udm1469-p1ulv5792) Units=km Length=0.027386 bus1=p1udm1469.1.2 bus2=p1ulv5792.1.2 switch=n enabled=y phases=2 Linecode=1P_UG_AL_1/0_Brenau_2

New Line.l(r:p1udm1468-p1ulv4663) Units=km Length=0.00923152 bus1=p1udm1468.1.2 bus2=p1ulv4663.1.2 switch=n enabled=y phases=2 Linecode=1P_UG_AL_1/0_Brenau_2

New Line.l(r:p1udm1467-p1ulv1964) Units=km Length=0.0199451 bus1=p1udm1467.1.2 bus2=p1ulv1964.1.2 switch=n enabled=y phases=2 Linecode=1P_UG_AL_1/0_Brenau_2

New Line.l(r:p1udm1467-p1udm1468) Units=km Length=0.00771936 bus1=p1udm1468.1.2 bus2=p1udm1467.1.2 switch=n enabled=y phases=2 Linecode=1P_UG_AL_1/0_Brenau_2

New Line.l(r:p1udm1468-p1udm1469) Units=km Length=0.00771806 bus1=p1udm1469.1.2 bus2=p1udm1468.1.2 switch=n enabled=y phases=2 Linecode=1P_UG_AL_2/0_Converse_2

New Line.l(r:p1udm1469-p1udt401lv) Units=km Length=0.00771936 bus1=p1udt401lv.1.2 bus2=p1udm1469.1.2 switch=n enabled=y phases=2 Linecode=1P_UG_AL_4/0_Sweetbriar_2

New Line.l(r:p1udt402lv-p1ulv431) Units=km Length=0.033432 bus1=p1udt402lv.1.2 bus2=p1ulv431.1.2 switch=n enabled=y phases=2 Linecode=1P_UG_AL_4/0_Sweetbriar_2

New Line.l(r:p1udt402lv-p1ulv7783) Units=km Length=0.020280900000000004 bus1=p1udt402lv.1.2 bus2=p1ulv7783.1.2 switch=n enabled=y phases=2 Linecode=1P_UG_AL_1/0_Brenau_2

New Line.l(r:p1udm1473-p1ulv432) Units=km Length=0.0090595 bus1=p1udm1473.1.2 bus2=p1ulv432.1.2 switch=n enabled=y phases=2 Linecode=1P_OH_AL_2/0_Rucina_2

New Line.l(r:p1udm1476-p1ulv7418) Units=km Length=0.0106978 bus1=p1udm1476.1.2 bus2=p1ulv7418.1.2 switch=n enabled=y phases=2 Linecode=1P_OH_AL_2/0_Rucina_2

New Line.l(r:p1udm1473-p1udm1476) Units=km Length=0.0638947 bus1=p1udm1473.1.2 bus2=p1udm1476.1.2 switch=n enabled=y phases=2 Linecode=1P_OH_AL_4/0_Zuzara_2

New Line.l(r:p1udm1473-p1udt403lv) Units=km Length=0.0132171 bus1=p1udt403lv.1.2 bus2=p1udm1473.1.2 switch=n enabled=y phases=2 Linecode=1P_OH_AL_2/0_Rucina_2

New Line.l(r:p1udm1474-p1ulv2969) Units=km Length=0.007480430000000001 bus1=p1udm1474.1.2 bus2=p1ulv2969.1.2 switch=n enabled=y phases=2 Linecode=1P_OH_AL_2/0_Rucina_2

New Line.l(r:p1udm1474-p1udt403lv) Units=km Length=0.00990291 bus1=p1udt403lv.1.2 bus2=p1udm1474.1.2 switch=n enabled=y phases=2 Linecode=1P_OH_AL_2/0_Rucina_2

New Line.l(r:p1udm1475-p1ulv4785) Units=km Length=0.0160604 bus1=p1udm1475.1.2 bus2=p1ulv4785.1.2 switch=n enabled=y phases=2 Linecode=1P_OH_AL_2/0_Rucina_2

New Line.l(r:p1udm1475-p1udt403lv) Units=km Length=0.0172412 bus1=p1udt403lv.1.2 bus2=p1udm1475.1.2 switch=n enabled=y phases=2 Linecode=1P_OH_AL_2/0_Rucina_2

New Line.l(r:p1udm1479-p1ulv2109) Units=km Length=0.0134179 bus1=p1udm1479.1.2 bus2=p1ulv2109.1.2 switch=n enabled=y phases=2 Linecode=1P_OH_AL_2/0_Rucina_2

New Line.l(r:p1udm1479-p1ulv11465) Units=km Length=0.0204805 bus1=p1udm1479.1.2 bus2=p1ulv11465.1.2 switch=n enabled=y phases=2 Linecode=1P_OH_AL_2/0_Rucina_2

New Line.l(r:p1udm1477-p1ulv433) Units=km Length=0.0162651 bus1=p1udm1477.1.2 bus2=p1ulv433.1.2 switch=n enabled=y phases=2 Linecode=1P_OH_AL_2/0_Rucina_2

New Line.l(r:p1udm1477-p1udm1479) Units=km Length=0.0197693 bus1=p1udm1479.1.2 bus2=p1udm1477.1.2 switch=n enabled=y phases=2 Linecode=1P_OH_AL_2/0_Rucina_2

New Line.l(r:p1udm1479-p1udt404lv) Units=km Length=0.0320432 bus1=p1udt404lv.1.2 bus2=p1udm1479.1.2 switch=n enabled=y phases=2 Linecode=1P_OH_AL_4/0_Zuzara_2

New Line.l(r:p1udm1481-p1ulv10381) Units=km Length=0.0146646 bus1=p1udm1481.1.2 bus2=p1ulv10381.1.2 switch=n enabled=y phases=2 Linecode=1P_OH_AL_2/0_Rucina_2

New Line.l(r:p1udm1478-p1ulv1705) Units=km Length=0.0133094 bus1=p1udm1478.1.2 bus2=p1ulv1705.1.2 switch=n enabled=y phases=2 Linecode=1P_OH_AL_2/0_Rucina_2

New Line.l(r:p1udm1478-p1ulv7554) Units=km Length=0.0275536 bus1=p1udm1478.1.2 bus2=p1ulv7554.1.2 switch=n enabled=y phases=2 Linecode=1P_OH_AL_4/0_Zuzara_2

New Line.l(r:p1udm1478-p1udm1481) Units=km Length=0.0173499 bus1=p1udm1481.1.2 bus2=p1udm1478.1.2 switch=n enabled=y phases=2 Linecode=1P_OH_AL_2/0_Rucina_2

New Line.l(r:p1udm1481-p1udt404lv) Units=km Length=0.0173499 bus1=p1udt404lv.1.2 bus2=p1udm1481.1.2 switch=n enabled=y phases=2 Linecode=1P_OH_AL_2/0_Rucina_2

New Line.l(r:p1udt405lv-p1ulv631) Units=km Length=0.0160901 bus1=p1udt405lv.1.2 bus2=p1ulv631.1.2 switch=n enabled=y phases=2 Linecode=1P_OH_AL_2/0_Rucina_2

New Line.l(r:p1udt405lv-p1ulv6534) Units=km Length=0.0161139 bus1=p1udt405lv.1.2 bus2=p1ulv6534.1.2 switch=n enabled=y phases=2 Linecode=1P_OH_AL_2/0_Rucina_2

New Line.l(r:p1udm1483-p1ulv434) Units=km Length=0.0174751 bus1=p1udm1483.1.2 bus2=p1ulv434.1.2 switch=n enabled=y phases=2 Linecode=1P_OH_AL_2/0_Rucina_2

New Line.l(r:p1udm1483-p1ulv5130) Units=km Length=0.0150986 bus1=p1udm1483.1.2 bus2=p1ulv5130.1.2 switch=n enabled=y phases=2 Linecode=1P_OH_AL_2/0_Rucina_2

New Line.l(r:p1udm1483-p1ulv5589) Units=km Length=0.04454770000000001 bus1=p1udm1483.1.2 bus2=p1ulv5589.1.2 switch=n enabled=y phases=2 Linecode=1P_OH_AL_4/0_Zuzara_2

New Line.l(r:p1udm1483-p1udt405lv) Units=km Length=0.05242650000000001 bus1=p1udt405lv.1.2 bus2=p1udm1483.1.2 switch=n enabled=y phases=2 Linecode=1P_OH_AL_4/0_Zuzara_2

New Line.l(r:p1udm1484-p1ulv630) Units=km Length=0.0150167 bus1=p1udm1484.1.2 bus2=p1ulv630.1.2 switch=n enabled=y phases=2 Linecode=1P_OH_AL_2/0_Rucina_2

New Line.l(r:p1udm1484-p1ulv1706) Units=km Length=0.0485757 bus1=p1udm1484.1.2 bus2=p1ulv1706.1.2 switch=n enabled=y phases=2 Linecode=1P_OH_AL_4/0_Zuzara_2

New Line.l(r:p1udm1484-p1ulv8399) Units=km Length=0.0203414 bus1=p1udm1484.1.2 bus2=p1ulv8399.1.2 switch=n enabled=y phases=2 Linecode=1P_OH_AL_2/0_Rucina_2

New Line.l(r:p1udm1486-p1ulv971) Units=km Length=0.00826494 bus1=p1udm1486.1.2 bus2=p1ulv971.1.2 switch=n enabled=y phases=2 Linecode=1P_OH_AL_2/0_Rucina_2

New Line.l(r:p1udm1484-p1udm1486) Units=km Length=0.0175616 bus1=p1udm1484.1.2 bus2=p1udm1486.1.2 switch=n enabled=y phases=2 Linecode=1P_OH_AL_2/0_Rucina_2

New Line.l(r:p1udm1484-p1udt405lv) Units=km Length=0.017465 bus1=p1udt405lv.1.2 bus2=p1udm1484.1.2 switch=n enabled=y phases=2 Linecode=1P_OH_AL_2/0_Rucina_2

New Line.l(r:p1udt406lv-p1ulv972) Units=km Length=0.0150224 bus1=p1udt406lv.1.2 bus2=p1ulv972.1.2 switch=n enabled=y phases=2 Linecode=1P_OH_AL_2/0_Rucina_2

New Line.l(r:p1udm1492-p1ulv435) Units=km Length=0.0143008 bus1=p1udm1492.1.2 bus2=p1ulv435.1.2 switch=n enabled=y phases=2 Linecode=1P_OH_AL_2/0_Rucina_2

New Line.l(r:p1udm1492-p1udt406lv) Units=km Length=0.0182486 bus1=p1udt406lv.1.2 bus2=p1udm1492.1.2 switch=n enabled=y phases=2 Linecode=1P_OH_AL_2/0_Rucina_2

New Line.l(r:p1udt421lv-p1ulv1868) Units=km Length=0.0164598 bus1=p1udt421lv.1.2 bus2=p1ulv1868.1.2 switch=n enabled=y phases=2 Linecode=1P_OH_AL_2/0_Rucina_2

New Line.l(r:p1udt421lv-p1ulv6163) Units=km Length=0.0123727 bus1=p1udt421lv.1.2 bus2=p1ulv6163.1.2 switch=n enabled=y phases=2 Linecode=1P_OH_AL_2/0_Rucina_2

New Line.l(r:p1udm1554-p1ulv451) Units=km Length=0.0170536 bus1=p1udm1554.1.2 bus2=p1ulv451.1.2 switch=n enabled=y phases=2 Linecode=1P_OH_AL_2/0_Rucina_2

New Line.l(r:p1udm1554-p1ulv1990) Units=km Length=0.015678 bus1=p1udm1554.1.2 bus2=p1ulv1990.1.2 switch=n enabled=y phases=2 Linecode=1P_OH_AL_2/0_Rucina_2

New Line.l(r:p1udm1554-p1ulv10520) Units=km Length=0.0151547 bus1=p1udm1554.1.2 bus2=p1ulv10520.1.2 switch=n enabled=y phases=2 Linecode=1P_OH_AL_2/0_Rucina_2

New Line.l(r:p1udm1554-p1udt421lv) Units=km Length=0.0197785 bus1=p1udt421lv.1.2 bus2=p1udm1554.1.2 switch=n enabled=y phases=2 Linecode=1P_OH_AL_2/0_Rucina_2

New Line.l(r:p1udm1557-p1ulv3844) Units=km Length=0.0238198 bus1=p1udm1557.1.2 bus2=p1ulv3844.1.2 switch=n enabled=y phases=2 Linecode=1P_OH_AL_2/0_Rucina_2

New Line.l(r:p1udm1557-p1udt421lv) Units=km Length=0.0186404 bus1=p1udt421lv.1.2 bus2=p1udm1557.1.2 switch=n enabled=y phases=2 Linecode=1P_OH_AL_2/0_Rucina_2

New Line.l(r:p1udt486lv-p1ulv1197) Units=km Length=0.0177 bus1=p1udt486lv.1.2 bus2=p1ulv1197.1.2 switch=n enabled=y phases=2 Linecode=1P_UG_AL_2/0_Converse_2

New Line.l(r:p1udt486lv-p1ulv3586) Units=km Length=0.0141621 bus1=p1udt486lv.1.2 bus2=p1ulv3586.1.2 switch=n enabled=y phases=2 Linecode=1P_UG_AL_2/0_Converse_2

New Line.l(r:p1udm1776-p1ulv519) Units=km Length=0.0162938 bus1=p1udm1776.1.2 bus2=p1ulv519.1.2 switch=n enabled=y phases=2 Linecode=1P_UG_AL_1/0_Brenau_2

New Line.l(r:p1udm1776-p1ulv3697) Units=km Length=0.0138414 bus1=p1udm1776.1.2 bus2=p1ulv3697.1.2 switch=n enabled=y phases=2 Linecode=1P_UG_AL_1/0_Brenau_2

New Line.l(r:p1udm1776-p1udt486lv) Units=km Length=0.019915300000000004 bus1=p1udt486lv.1.2 bus2=p1udm1776.1.2 switch=n enabled=y phases=2 Linecode=1P_UG_AL_2/0_Converse_2

New Line.l(r:p1udm1779-p1ulv2470) Units=km Length=0.017120100000000003 bus1=p1udm1779.1.2 bus2=p1ulv2470.1.2 switch=n enabled=y phases=2 Linecode=1P_UG_AL_1/0_Brenau_2

New Line.l(r:p1udm1777-p1ulv737) Units=km Length=0.0142145 bus1=p1udm1777.1.2 bus2=p1ulv737.1.2 switch=n enabled=y phases=2 Linecode=1P_UG_AL_1/0_Brenau_2

New Line.l(r:p1udm1777-p1udm1779) Units=km Length=0.00995266 bus1=p1udm1779.1.2 bus2=p1udm1777.1.2 switch=n enabled=y phases=2 Linecode=1P_UG_AL_1/0_Brenau_2

New Line.l(r:p1udm1779-p1udt486lv) Units=km Length=0.019915300000000004 bus1=p1udt486lv.1.2 bus2=p1udm1779.1.2 switch=n enabled=y phases=2 Linecode=1P_UG_AL_2/0_Converse_2

New Line.l(r:p1udt490lv-p1ulv2472) Units=km Length=0.022008600000000003 bus1=p1udt490lv.1.2 bus2=p1ulv2472.1.2 switch=n enabled=y phases=2 Linecode=1P_OH_AL_2/0_Rucina_2

New Line.l(r:p1udt490lv-p1ulv11097) Units=km Length=0.0119972 bus1=p1udt490lv.1.2 bus2=p1ulv11097.1.2 switch=n enabled=y phases=2 Linecode=1P_OH_AL_2/0_Rucina_2

New Line.l(r:p1udm1792-p1ulv523) Units=km Length=0.0127099 bus1=p1udm1792.1.2 bus2=p1ulv523.1.2 switch=n enabled=y phases=2 Linecode=1P_OH_AL_2/0_Rucina_2

New Line.l(r:p1udm1792-p1ulv7656) Units=km Length=0.0215973 bus1=p1udm1792.1.2 bus2=p1ulv7656.1.2 switch=n enabled=y phases=2 Linecode=1P_OH_AL_2/0_Rucina_2

New Line.l(r:p1udm1792-p1udt490lv) Units=km Length=0.0170554 bus1=p1udt490lv.1.2 bus2=p1udm1792.1.2 switch=n enabled=y phases=2 Linecode=1P_OH_AL_2/0_Rucina_2

New Line.l(r:p1udt491lv-p1ulv1845) Units=km Length=0.00451356 bus1=p1udt491lv.1.2 bus2=p1ulv1845.1.2 switch=n enabled=y phases=2 Linecode=1P_OH_AL_2/0_Rucina_2

New Line.l(r:p1udt491lv-p1ulv4419) Units=km Length=0.0104264 bus1=p1udt491lv.1.2 bus2=p1ulv4419.1.2 switch=n enabled=y phases=2 Linecode=1P_OH_AL_2/0_Rucina_2

New Line.l(r:p1udt491lv-p1ulv5790) Units=km Length=0.0224782 bus1=p1udt491lv.1.2 bus2=p1ulv5790.1.2 switch=n enabled=y phases=2 Linecode=1P_OH_AL_2/0_Rucina_2

New Line.l(r:p1udm1796-p1ulv524) Units=km Length=0.00861713 bus1=p1udm1796.1.2 bus2=p1ulv524.1.2 switch=n enabled=y phases=2 Linecode=1P_OH_AL_2/0_Rucina_2

New Line.l(r:p1udm1801-p1ulv5791) Units=km Length=0.0110093 bus1=p1udm1801.1.2 bus2=p1ulv5791.1.2 switch=n enabled=y phases=2 Linecode=1P_OH_AL_2/0_Rucina_2

New Line.l(r:p1udm1796-p1udm1801) Units=km Length=0.0965169 bus1=p1udm1796.1.2 bus2=p1udm1801.1.2 switch=n enabled=y phases=2 Linecode=1P_OH_AL_4/0_Zuzara_2

New Line.l(r:p1udm1796-p1udt491lv) Units=km Length=0.0177327 bus1=p1udt491lv.1.2 bus2=p1udm1796.1.2 switch=n enabled=y phases=2 Linecode=1P_OH_AL_2/0_Rucina_2

New Line.l(r:p1udm1799-p1ulv4551) Units=km Length=0.0100444 bus1=p1udm1799.1.2 bus2=p1ulv4551.1.2 switch=n enabled=y phases=2 Linecode=1P_OH_AL_2/0_Rucina_2

New Line.l(r:p1udm1799-p1ulv10489) Units=km Length=0.0210021 bus1=p1udm1799.1.2 bus2=p1ulv10489.1.2 switch=n enabled=y phases=2 Linecode=1P_OH_AL_2/0_Rucina_2

New Line.l(r:p1udm1799-p1udt491lv) Units=km Length=0.0177427 bus1=p1udt491lv.1.2 bus2=p1udm1799.1.2 switch=n enabled=y phases=2 Linecode=1P_OH_AL_2/0_Rucina_2

New Line.l(r:p1udt492lv-p1ulv525) Units=km Length=0.032169600000000007 bus1=p1udt492lv.1.2 bus2=p1ulv525.1.2 switch=n enabled=y phases=2 Linecode=1P_OH_AL_4/0_Zuzara_2

New Line.l(r:p1udm1804-p1ulv1963) Units=km Length=0.0176618 bus1=p1udm1804.1.2 bus2=p1ulv1963.1.2 switch=n enabled=y phases=2 Linecode=1P_OH_AL_2/0_Rucina_2

New Line.l(r:p1udm1804-p1ulv11820) Units=km Length=0.030541000000000002 bus1=p1udm1804.1.2 bus2=p1ulv11820.1.2 switch=n enabled=y phases=2 Linecode=1P_OH_AL_4/0_Zuzara_2

New Line.l(r:p1udm1804-p1udt492lv) Units=km Length=0.0175002 bus1=p1udt492lv.1.2 bus2=p1udm1804.1.2 switch=n enabled=y phases=2 Linecode=1P_OH_AL_2/0_Rucina_2_5

New Line.l(r:p1udm1805-p1ulv10374) Units=km Length=0.012362 bus1=p1udm1805.1.2 bus2=p1ulv10374.1.2 switch=n enabled=y phases=2 Linecode=1P_OH_AL_2/0_Rucina_2

New Line.l(r:p1udm1805-p1udt492lv) Units=km Length=0.046756 bus1=p1udt492lv.1.2 bus2=p1udm1805.1.2 switch=n enabled=y phases=2 Linecode=1P_OH_AL_4/0_Zuzara_2

New Line.l(r:p1udt493lv-p1ulv526) Units=km Length=0.0123961 bus1=p1udt493lv.1.2 bus2=p1ulv526.1.2 switch=n enabled=y phases=2 Linecode=1P_UG_AL_2/0_Converse_2

New Line.l(r:p1udt493lv-p1ulv10377) Units=km Length=0.0165407 bus1=p1udt493lv.1.2 bus2=p1ulv10377.1.2 switch=n enabled=y phases=2 Linecode=1P_UG_AL_1/0_Brenau_2

New Line.l(r:p1udm1808-p1ulv6803) Units=km Length=0.0133426 bus1=p1udm1808.1.2 bus2=p1ulv6803.1.2 switch=n enabled=y phases=2 Linecode=1P_UG_AL_1/0_Brenau_2

New Line.l(r:p1udm1808-p1ulv11102) Units=km Length=0.0160207 bus1=p1udm1808.1.2 bus2=p1ulv11102.1.2 switch=n enabled=y phases=2 Linecode=1P_UG_AL_1/0_Brenau_2

New Line.l(r:p1udm1808-p1udt493lv) Units=km Length=0.019220000000000004 bus1=p1udt493lv.1.2 bus2=p1udm1808.1.2 switch=n enabled=y phases=2 Linecode=1P_UG_AL_2/0_Converse_2

New Line.l(r:p1udm1812-p1ulv12493) Units=km Length=0.016113 bus1=p1udm1812.1.2 bus2=p1ulv12493.1.2 switch=n enabled=y phases=2 Linecode=1P_UG_AL_1/0_Brenau_2

New Line.l(r:p1udm1809-p1ulv7276) Units=km Length=0.012391500000000001 bus1=p1udm1809.1.2 bus2=p1ulv7276.1.2 switch=n enabled=y phases=2 Linecode=1P_UG_AL_1/0_Brenau_2

New Line.l(r:p1udm1809-p1udm1812) Units=km Length=0.009615 bus1=p1udm1812.1.2 bus2=p1udm1809.1.2 switch=n enabled=y phases=2 Linecode=1P_UG_AL_1/0_Brenau_2

New Line.l(r:p1udm1812-p1udt493lv) Units=km Length=0.019220000000000004 bus1=p1udt493lv.1.2 bus2=p1udm1812.1.2 switch=n enabled=y phases=2 Linecode=1P_UG_AL_2/0_Converse_2

New Line.l(r:p1udt494lv-p1ulv527) Units=km Length=0.00772234 bus1=p1udt494lv.1.2 bus2=p1ulv527.1.2 switch=n enabled=y phases=2 Linecode=1P_OH_AL_2/0_Rucina_2

New Line.l(r:p1udm1814-p1ulv2475) Units=km Length=0.0186199 bus1=p1udm1814.1.2 bus2=p1ulv2475.1.2 switch=n enabled=y phases=2 Linecode=1P_OH_AL_2/0_Rucina_2

New Line.l(r:p1udm1814-p1udt494lv) Units=km Length=0.017201 bus1=p1udt494lv.1.2 bus2=p1udm1814.1.2 switch=n enabled=y phases=2 Linecode=1P_OH_AL_2/0_Rucina_2

New Line.l(r:p1udm1815-p1ulv4558) Units=km Length=0.0339907 bus1=p1udm1815.1.2 bus2=p1ulv4558.1.2 switch=n enabled=y phases=2 Linecode=1P_OH_AL_4/0_Zuzara_2

New Line.l(r:p1udm1815-p1udt494lv) Units=km Length=0.0172012 bus1=p1udt494lv.1.2 bus2=p1udm1815.1.2 switch=n enabled=y phases=2 Linecode=1P_OH_AL_2/0_Rucina_2

New Line.l(r:p1udt505lv-p1ulv539) Units=km Length=0.0197948 bus1=p1udt505lv.1.2 bus2=p1ulv539.1.2 switch=n enabled=y phases=2 Linecode=1P_OH_AL_2/0_Rucina_2

New Line.l(r:p1udt505lv-p1ulv3483) Units=km Length=0.011393100000000001 bus1=p1udt505lv.1.2 bus2=p1ulv3483.1.2 switch=n enabled=y phases=2 Linecode=1P_OH_AL_2/0_Rucina_2

New Line.l(r:p1udt587lv-p1ulv627) Units=km Length=0.0212308 bus1=p1udt587lv.1.2 bus2=p1ulv627.1.2 switch=n enabled=y phases=2 Linecode=1P_OH_AL_2/0_Rucina_2

New Line.l(r:p1udt587lv-p1ulv8922) Units=km Length=0.0145252 bus1=p1udt587lv.1.2 bus2=p1ulv8922.1.2 switch=n enabled=y phases=2 Linecode=1P_OH_AL_2/0_Rucina_2

New Line.l(r:p1udm2165-p1ulv3104) Units=km Length=0.0222158 bus1=p1udm2165.1.2 bus2=p1ulv3104.1.2 switch=n enabled=y phases=2 Linecode=1P_OH_AL_2/0_Rucina_2

New Line.l(r:p1udm2165-p1udt587lv) Units=km Length=0.017406100000000004 bus1=p1udt587lv.1.2 bus2=p1udm2165.1.2 switch=n enabled=y phases=2 Linecode=1P_OH_AL_2/0_Rucina_2

New Line.l(r:p1udm2166-p1ulv5583) Units=km Length=0.0220157 bus1=p1udm2166.1.2 bus2=p1ulv5583.1.2 switch=n enabled=y phases=2 Linecode=1P_OH_AL_2/0_Rucina_2

New Line.l(r:p1udm2166-p1ulv6929) Units=km Length=0.0119644 bus1=p1udm2166.1.2 bus2=p1ulv6929.1.2 switch=n enabled=y phases=2 Linecode=1P_OH_AL_2/0_Rucina_2

New Line.l(r:p1udm2166-p1udt587lv) Units=km Length=0.0174163 bus1=p1udt587lv.1.2 bus2=p1udm2166.1.2 switch=n enabled=y phases=2 Linecode=1P_OH_AL_2/0_Rucina_2

New Line.l(r:p1udt588lv-p1ulv1962) Units=km Length=0.0192085 bus1=p1udt588lv.1.2 bus2=p1ulv1962.1.2 switch=n enabled=y phases=2 Linecode=1P_OH_AL_2/0_Rucina_2

New Line.l(r:p1udt588lv-p1ulv6271) Units=km Length=0.0186796 bus1=p1udt588lv.1.2 bus2=p1ulv6271.1.2 switch=n enabled=y phases=2 Linecode=1P_OH_AL_2/0_Rucina_2

New Line.l(r:p1udm2169-p1ulv628) Units=km Length=0.013506 bus1=p1udm2169.1.2 bus2=p1ulv628.1.2 switch=n enabled=y phases=2 Linecode=1P_OH_AL_2/0_Rucina_2

New Line.l(r:p1udm2169-p1ulv6024) Units=km Length=0.015738 bus1=p1udm2169.1.2 bus2=p1ulv6024.1.2 switch=n enabled=y phases=2 Linecode=1P_OH_AL_2/0_Rucina_2

New Line.l(r:p1udm2169-p1ulv8656) Units=km Length=0.0190839 bus1=p1udm2169.1.2 bus2=p1ulv8656.1.2 switch=n enabled=y phases=2 Linecode=1P_OH_AL_2/0_Rucina_2

New Line.l(r:p1udm2169-p1udt588lv) Units=km Length=0.0166736 bus1=p1udt588lv.1.2 bus2=p1udm2169.1.2 switch=n enabled=y phases=2 Linecode=1P_OH_AL_2/0_Rucina_2

New Line.l(r:p1udm2174-p1ulv9563) Units=km Length=0.0180803 bus1=p1udm2174.1.2 bus2=p1ulv9563.1.2 switch=n enabled=y phases=2 Linecode=1P_OH_AL_2/0_Rucina_2

New Line.l(r:p1udm2174-p1ulv11101) Units=km Length=0.0149548 bus1=p1udm2174.1.2 bus2=p1ulv11101.1.2 switch=n enabled=y phases=2 Linecode=1P_OH_AL_2/0_Rucina_2

New Line.l(r:p1udm2174-p1udt588lv) Units=km Length=0.016666400000000005 bus1=p1udt588lv.1.2 bus2=p1udm2174.1.2 switch=n enabled=y phases=2 Linecode=1P_OH_AL_2/0_Rucina_2

...