external_data/tamu_texas_td/distribution_sample/p1uhs0_1247--p1udt3807/Loads.dss
New Load.load_p1ulv65_1 conn=wye bus1=p1ulv65.1 kV=0.12 Vminpu=0.8 Vmaxpu=1.2 model=1 kW=5.691543528113089 kvar=1.5564485607853333 Phases=1 yearly=res_kw_9613_pu

New Load.load_p1ulv65_2 conn=wye bus1=p1ulv65.2 kV=0.12 Vminpu=0.8 Vmaxpu=1.2 model=1 kW=5.691543528113089 kvar=1.5564485607853333 Phases=1 yearly=res_kw_9613_pu

New Load.load_p1ulv67_1 conn=wye bus1=p1ulv67.1 kV=0.12 Vminpu=0.8 Vmaxpu=1.2 model=1 kW=5.850494669124461 kvar=0.8234601250580765 Phases=1 yearly=res_kw_25330_pu

New Load.load_p1ulv67_2 conn=wye bus1=p1ulv67.2 kV=0.12 Vminpu=0.8 Vmaxpu=1.2 model=1 kW=5.850494669124461 kvar=0.8234601250580765 Phases=1 yearly=res_kw_25330_pu

New Load.load_p1ulv68_1 conn=wye bus1=p1ulv68.1 kV=0.12 Vminpu=0.8 Vmaxpu=1.2 model=1 kW=2.6077776029016824 kvar=0.7673832328926916 Phases=1 yearly=res_kw_4467_pu

New Load.load_p1ulv68_2 conn=wye bus1=p1ulv68.2 kV=0.12 Vminpu=0.8 Vmaxpu=1.2 model=1 kW=2.6077776029016824 kvar=0.7673832328926916 Phases=1 yearly=res_kw_4467_pu

New Load.load_p1ulv75_1 conn=wye bus1=p1ulv75.1 kV=0.12 Vminpu=0.8 Vmaxpu=1.2 model=1 kW=5.850494669124461 kvar=0.8234601250580765 Phases=1 yearly=res_kw_25330_pu

New Load.load_p1ulv75_2 conn=wye bus1=p1ulv75.2 kV=0.12 Vminpu=0.8 Vmaxpu=1.2 model=1 kW=5.850494669124461 kvar=0.8234601250580765 Phases=1 yearly=res_kw_25330_pu

New Load.load_p1ulv76_1 conn=wye bus1=p1ulv76.1 kV=0.12 Vminpu=0.8 Vmaxpu=1.2 model=1 kW=5.185081035308567 kvar=1.3417185421886457 Phases=1 yearly=res_kw_11202_pu

New Load.load_p1ulv76_2 conn=wye bus1=p1ulv76.2 kV=0.12 Vminpu=0.8 Vmaxpu=1.2 model=1 kW=5.185081035308567 kvar=1.3417185421886457 Phases=1 yearly=res_kw_11202_pu

New Load.load_p1ulv77_1 conn=wye bus1=p1ulv77.1 kV=0.12 Vminpu=0.8 Vmaxpu=1.2 model=1 kW=5.185081035308567 kvar=1.3417185421886457 Phases=1 yearly=res_kw_11202_pu

New Load.load_p1ulv77_2 conn=wye bus1=p1ulv77.2 kV=0.12 Vminpu=0.8 Vmaxpu=1.2 model=1 kW=5.185081035308567 kvar=1.3417185421886457 Phases=1 yearly=res_kw_11202_pu

New Load.load_p1ulv78_1 conn=wye bus1=p1ulv78.1 kV=0.12 Vminpu=0.8 Vmaxpu=1.2 model=1 kW=4.489590026528137 kvar=1.1660382904526916 Phases=1 yearly=res_kw_29077_pu

New Load.load_p1ulv78_2 conn=wye bus1=p1ulv78.2 kV=0.12 Vminpu=0.8 Vmaxpu=1.2 model=1 kW=4.489590026528137 kvar=1.1660382904526916 Phases=1 yearly=res_kw_29077_pu

New Load.load_p1ulv79_1 conn=wye bus1=p1ulv79.1 kV=0.12 Vminpu=0.8 Vmaxpu=1.2 model=1 kW=5.691543528113089 kvar=1.5564485607853333 Phases=1 yearly=res_kw_9613_pu

New Load.load_p1ulv79_2 conn=wye bus1=p1ulv79.2 kV=0.12 Vminpu=0.8 Vmaxpu=1.2 model=1 kW=5.691543528113089 kvar=1.5564485607853333 Phases=1 yearly=res_kw_9613_pu

New Load.load_p1ulv80_1 conn=wye bus1=p1ulv80.1 kV=0.12 Vminpu=0.8 Vmaxpu=1.2 model=1 kW=5.185081035308567 kvar=1.3417185421886457 Phases=1 yearly=res_kw_11202_pu

New Load.load_p1ulv80_2 conn=wye bus1=p1ulv80.2 kV=0.12 Vminpu=0.8 Vmaxpu=1.2 model=1 kW=5.185081035308567 kvar=1.3417185421886457 Phases=1 yearly=res_kw_11202_pu

New Load.load_p1ulv81_1 conn=wye bus1=p1ulv81.1 kV=0.12 Vminpu=0.8 Vmaxpu=1.2 model=1 kW=12.566116051178085 kvar=1.7895180830228874 Phases=1 yearly=res_kw_12679_pu

New Load.load_p1ulv81_2 conn=wye bus1=p1ulv81.2 kV=0.12 Vminpu=0.8 Vmaxpu=1.2 model=1 kW=12.566116051178085 kvar=1.7895180830228874 Phases=1 yearly=res_kw_12679_pu

New Load.load_p1ulv82_1 conn=wye bus1=p1ulv82.1 kV=0.12 Vminpu=0.8 Vmaxpu=1.2 model=1 kW=12.566116051178085 kvar=1.7895180830228874 Phases=1 yearly=res_kw_12679_pu

New Load.load_p1ulv82_2 conn=wye bus1=p1ulv82.2 kV=0.12 Vminpu=0.8 Vmaxpu=1.2 model=1 kW=12.566116051178085 kvar=1.7895180830228874 Phases=1 yearly=res_kw_12679_pu

New Load.load_p1ulv83_1 conn=wye bus1=p1ulv83.1 kV=0.12 Vminpu=0.8 Vmaxpu=1.2 model=1 kW=5.850494669124461 kvar=0.8234601250580765 Phases=1 yearly=res_kw_25330_pu

New Load.load_p1ulv83_2 conn=wye bus1=p1ulv83.2 kV=0.12 Vminpu=0.8 Vmaxpu=1.2 model=1 kW=5.850494669124461 kvar=0.8234601250580765 Phases=1 yearly=res_kw_25330_pu

New Load.load_p1ulv84_1 conn=wye bus1=p1ulv84.1 kV=0.12 Vminpu=0.8 Vmaxpu=1.2 model=1 kW=5.185081035308567 kvar=1.3417185421886457 Phases=1 yearly=res_kw_11202_pu

New Load.load_p1ulv84_2 conn=wye bus1=p1ulv84.2 kV=0.12 Vminpu=0.8 Vmaxpu=1.2 model=1 kW=5.185081035308567 kvar=1.3417185421886457 Phases=1 yearly=res_kw_11202_pu

New Load.load_p1ulv101_1 conn=wye bus1=p1ulv101.1 kV=0.12 Vminpu=0.8 Vmaxpu=1.2 model=1 kW=5.691543528113089 kvar=1.5564485607853333 Phases=1 yearly=res_kw_9613_pu

New Load.load_p1ulv101_2 conn=wye bus1=p1ulv101.2 kV=0.12 Vminpu=0.8 Vmaxpu=1.2 model=1 kW=5.691543528113089 kvar=1.5564485607853333 Phases=1 yearly=res_kw_9613_pu

New Load.load_p1ulv104_1 conn=wye bus1=p1ulv104.1 kV=0.12 Vminpu=0.8 Vmaxpu=1.2 model=1 kW=5.671977786079407 kvar=1.6318531210492404 Phases=1 yearly=res_kw_10107_pu

New Load.load_p1ulv104_2 conn=wye bus1=p1ulv104.2 kV=0.12 Vminpu=0.8 Vmaxpu=1.2 model=1 kW=5.671977786079407 kvar=1.6318531210492404 Phases=1 yearly=res_kw_10107_pu

...